*Heading
** Job name: Quadratic_Element Model name: Model-1
** Generated by: Abaqus/CAE Student Edition 6.14-2
*Preprint, echo=NO, model=NO, history=NO, contact=NO
**
** PARTS
**
*Part, name=Al_Rod_Qudractic
*End Part
**  
**
** ASSEMBLY
**
*Assembly, name=Assembly
**  
*Instance, name=Al_Rod_Qudractic-1, part=Al_Rod_Qudractic
*Node
      1,           0.,           0.
      2, 0.00105042022,           0.
      3, 0.00210084044,           0.
      4, 0.00315126055,           0.
      5, 0.00420168089,           0.
      6, 0.00525210099,           0.
      7, 0.0063025211,           0.
      8, 0.0073529412,           0.
      9, 0.00840336177,           0.
     10, 0.00945378188,           0.
     11,  0.010504202,           0.
     12, 0.0115546221,           0.
     13, 0.0126050422,           0.
     14, 0.0136554623,           0.
     15, 0.0147058824,           0.
     16, 0.0157563034,           0.
     17, 0.0168067235,           0.
     18, 0.0178571437,           0.
     19, 0.0189075638,           0.
     20, 0.0199579839,           0.
** ... 933 like lines cut
*Element, type=T2D3
  1,   1, 478,   2
  2,   2, 479,   3
  3,   3, 480,   4
  4,   4, 481,   5
  5,   5, 482,   6
  6,   6, 483,   7
  7,   7, 484,   8
  8,   8, 485,   9
  9,   9, 486,  10
 10,  10, 487,  11
 11,  11, 488,  12
 12,  12, 489,  13
 13,  13, 490,  14
 14,  14, 491,  15
 15,  15, 492,  16
 16,  16, 493,  17
 17,  17, 494,  18
 18,  18, 495,  19
 19,  19, 496,  20
 20,  20, 497,  21
** ... 456 like lines cut
*Nset, nset=Al_Rod, generate
   1,  953,    1
*Elset, elset=Al_Rod, generate
   1,  476,    1
** Section: Al_Rod
*Solid Section, elset=Al_Rod, material=Aluminium
7.85398e-05,
*End Instance
**  
*Nset, nset=Body_Force, instance=Al_Rod_Qudractic-1, generate
   1,  953,    1
*Elset, elset=Body_Force, instance=Al_Rod_Qudractic-1, generate
   1,  476,    1
*Nset, nset=Fixed_Node, instance=Al_Rod_Qudractic-1
 1,
*Nset, nset=Traction_Load, instance=Al_Rod_Qudractic-1
 477,
*End Assembly
** 
** MATERIALS
** 
*Material, name=Aluminium
*Density
2780.,
*Elastic
 7e+10, 0.35
** ----------------------------------------------------------------
** 
** STEP: Quadratic_Truss
** 
*Step, name=Quadratic_Truss, nlgeom=YES, inc=500
Qudratic_Truss_Elements_Simulation
*Static
0.001, 1., 1e-05, 0.01
** 
** BOUNDARY CONDITIONS
** 
** Name: Fixed_Node Type: Displacement/Rotation
*Boundary
Fixed_Node, 1, 1
Fixed_Node, 2, 2
Fixed_Node, 6, 6
** 
** LOADS
** 
** Name: Body_Force   Type: Body force Using Field: Body_Force_SineWave
*Dload
Al_Rod_Qudractic-1.1, BX, 420149.
Al_Rod_Qudractic-1.2, BX, 1.25999e+06
Al_Rod_Qudractic-1.3, BX, 2.09846e+06
Al_Rod_Qudractic-1.4, BX, 2.93464e+06
Al_Rod_Qudractic-1.5, BX, 3.76763e+06
Al_Rod_Qudractic-1.6, BX, 4.59652e+06
Al_Rod_Qudractic-1.7, BX, 5.4204e+06
Al_Rod_Qudractic-1.8, BX, 6.23837e+06
Al_Rod_Qudractic-1.9, BX, 7.04956e+06
Al_Rod_Qudractic-1.10, BX, 7.85307e+06
Al_Rod_Qudractic-1.11, BX, 8.64803e+06
Al_Rod_Qudractic-1.12, BX, 9.43357e+06
Al_Rod_Qudractic-1.13, BX, 1.02088e+07
Al_Rod_Qudractic-1.14, BX, 1.0973e+07
Al_Rod_Qudractic-1.15, BX, 1.17252e+07
Al_Rod_Qudractic-1.16, BX, 1.24646e+07
Al_Rod_Qudractic-1.17, BX, 1.31905e+07
Al_Rod_Qudractic-1.18, BX, 1.3902e+07
Al_Rod_Qudractic-1.19, BX, 1.45984e+07
Al_Rod_Qudractic-1.20, BX, 1.52788e+07
** ... 456 like lines cut
** Name: Compressive_Load   Type: Concentrated force
*Cload
Traction_Load, 1, -78.5398
** 
** OUTPUT REQUESTS
** 
*Restart, write, frequency=0
** 
** FIELD OUTPUT: F-Output-1
** 
*Output, field
*Node Output
RF, U
*Element Output, directions=YES
BF, E, S
** 
** HISTORY OUTPUT: H-Output-1
** 
*Output, history, variable=PRESELECT
*End Step
