 Abaqus/Standard Student Edition 6.14-2                  DATE 06-Mar-2015 TIME 12:09:30
 SUMMARY OF JOB INFORMATION:
 STEP  INC ATT SEVERE EQUIL TOTAL  TOTAL      STEP       INC OF       DOF    IF
               DISCON ITERS ITERS  TIME/    TIME/LPF    TIME/LPF    MONITOR RIKS
               ITERS               FREQ
   1     1   1     0     1     1  0.00100    0.00100    0.001000  
   1     2   1     0     1     1  0.00200    0.00200    0.001000  
   1     3   1     0     1     1  0.00350    0.00350    0.001500  
   1     4   1     0     1     1  0.00575    0.00575    0.002250  
   1     5   1     0     1     1  0.00913    0.00913    0.003375  
   1     6   1     0     1     1  0.0142     0.0142     0.005063  
   1     7   1     0     1     1  0.0218     0.0218     0.007594  
   1     8   1     0     1     1  0.0318     0.0318     0.01000   
   1     9   1     0     1     1  0.0418     0.0418     0.01000   
   1    10   1     0     1     1  0.0518     0.0518     0.01000   
   1    11   1     0     1     1  0.0618     0.0618     0.01000   
   1    12   1     0     1     1  0.0718     0.0718     0.01000   
   1    13   1     0     1     1  0.0818     0.0818     0.01000   
   1    14   1     0     1     1  0.0918     0.0918     0.01000   
   1    15   1     0     1     1  0.102      0.102      0.01000   
   1    16   1     0     1     1  0.112      0.112      0.01000   
   1    17   1     0     1     1  0.122      0.122      0.01000   
   1    18   1     0     1     1  0.132      0.132      0.01000   
   1    19   1     0     1     1  0.142      0.142      0.01000   
   1    20   1     0     1     1  0.152      0.152      0.01000   
   1    21   1     0     1     1  0.162      0.162      0.01000   
   1    22   1     0     1     1  0.172      0.172      0.01000   
   1    23   1     0     1     1  0.182      0.182      0.01000   
   1    24   1     0     1     1  0.192      0.192      0.01000   
   1    25   1     0     1     1  0.202      0.202      0.01000   
   1    26   1     0     1     1  0.212      0.212      0.01000   
   1    27   1     0     1     1  0.222      0.222      0.01000   
   1    28   1     0     1     1  0.232      0.232      0.01000   
   1    29   1     0     1     1  0.242      0.242      0.01000   
   1    30   1     0     1     1  0.252      0.252      0.01000   
   1    31   1     0     1     1  0.262      0.262      0.01000   
   1    32   1     0     1     1  0.272      0.272      0.01000   
   1    33   1     0     1     1  0.282      0.282      0.01000   
   1    34   1     0     1     1  0.292      0.292      0.01000   
   1    35   1     0     1     1  0.302      0.302      0.01000   
   1    36   1     0     1     1  0.312      0.312      0.01000   
   1    37   1     0     1     1  0.322      0.322      0.01000   
   1    38   1     0     1     1  0.332      0.332      0.01000   
   1    39   1     0     1     1  0.342      0.342      0.01000   
   1    40   1     0     1     1  0.352      0.352      0.01000   
   1    41   1     0     1     1  0.362      0.362      0.01000   
   1    42   1     0     1     1  0.372      0.372      0.01000   
   1    43   1     0     1     1  0.382      0.382      0.01000   
   1    44   1     0     1     1  0.392      0.392      0.01000   
   1    45   1     0     1     1  0.402      0.402      0.01000   
   1    46   1     0     1     1  0.412      0.412      0.01000   
   1    47   1     0     1     1  0.422      0.422      0.01000   
   1    48   1     0     1     1  0.432      0.432      0.01000   
   1    49   1     0     1     1  0.442      0.442      0.01000   
   1    50   1     0     1     1  0.452      0.452      0.01000   
   1    51   1     0     1     1  0.462      0.462      0.01000   
   1    52   1     0     1     1  0.472      0.472      0.01000   
   1    53   1     0     1     1  0.482      0.482      0.01000   
   1    54   1     0     1     1  0.492      0.492      0.01000   
   1    55   1     0     1     1  0.502      0.502      0.01000   
   1    56   1     0     1     1  0.512      0.512      0.01000   
   1    57   1     0     1     1  0.522      0.522      0.01000   
   1    58   1     0     1     1  0.532      0.532      0.01000   
   1    59   1     0     1     1  0.542      0.542      0.01000   
   1    60   1     0     1     1  0.552      0.552      0.01000   
   1    61   1     0     1     1  0.562      0.562      0.01000   
   1    62   1     0     1     1  0.572      0.572      0.01000   
   1    63   1     0     1     1  0.582      0.582      0.01000   
   1    64   1     0     1     1  0.592      0.592      0.01000   
   1    65   1     0     1     1  0.602      0.602      0.01000   
   1    66   1     0     1     1  0.612      0.612      0.01000   
   1    67   1     0     1     1  0.622      0.622      0.01000   
   1    68   1     0     1     1  0.632      0.632      0.01000   
   1    69   1     0     1     1  0.642      0.642      0.01000   
   1    70   1     0     1     1  0.652      0.652      0.01000   
   1    71   1     0     1     1  0.662      0.662      0.01000   
   1    72   1     0     1     1  0.672      0.672      0.01000   
   1    73   1     0     1     1  0.682      0.682      0.01000   
   1    74   1     0     1     1  0.692      0.692      0.01000   
   1    75   1     0     1     1  0.702      0.702      0.01000   
   1    76   1     0     1     1  0.712      0.712      0.01000   
   1    77   1     0     1     1  0.722      0.722      0.01000   
   1    78   1     0     1     1  0.732      0.732      0.01000   
   1    79   1     0     1     1  0.742      0.742      0.01000   
   1    80   1     0     1     1  0.752      0.752      0.01000   
   1    81   1     0     1     1  0.762      0.762      0.01000   
   1    82   1     0     1     1  0.772      0.772      0.01000   
   1    83   1     0     1     1  0.782      0.782      0.01000   
   1    84   1     0     1     1  0.792      0.792      0.01000   
   1    85   1     0     1     1  0.802      0.802      0.01000   
   1    86   1     0     1     1  0.812      0.812      0.01000   
   1    87   1     0     1     1  0.822      0.822      0.01000   
   1    88   1     0     1     1  0.832      0.832      0.01000   
   1    89   1     0     1     1  0.842      0.842      0.01000   
   1    90   1     0     1     1  0.852      0.852      0.01000   
   1    91   1     0     1     1  0.862      0.862      0.01000   
   1    92   1     0     1     1  0.872      0.872      0.01000   
   1    93   1     0     1     1  0.882      0.882      0.01000   
   1    94   1     0     1     1  0.892      0.892      0.01000   
   1    95   1     0     1     1  0.902      0.902      0.01000   
   1    96   1     0     1     1  0.912      0.912      0.01000   
   1    97   1     0     1     1  0.922      0.922      0.01000   
   1    98   1     0     1     1  0.932      0.932      0.01000   
   1    99   1     0     1     1  0.942      0.942      0.01000   
   1   100   1     0     1     1  0.952      0.952      0.01000   
   1   101   1     0     1     1  0.962      0.962      0.01000   
   1   102   1     0     1     1  0.972      0.972      0.01000   
   1   103   1     0     1     1  0.982      0.982      0.01000   
   1   104   1     0     1     1  0.992      0.992      0.01000   
   1   105   1     0     1     1  1.00       1.00       0.008219  
                          
 THE ANALYSIS HAS COMPLETED SUCCESSFULLY
