1

   Abaqus 6.14-2                                  Date 06-Mar-2015   Time 12:09:30
   

                                                                                 
 Qudratic_Truss_Elements_Simulation                                              
 STEP    1     INCREMENT     1     STEP TIME    0.00    


                        S T E P       1     S T A T I C   A N A L Y S I S


          Qudratic_Truss_Elements_Simulation                                              

     AUTOMATIC TIME CONTROL WITH -
          A SUGGESTED INITIAL TIME INCREMENT OF                1.000E-03
          AND A TOTAL TIME PERIOD OF                            1.00    
          THE MINIMUM TIME INCREMENT ALLOWED IS                1.000E-05
          THE MAXIMUM TIME INCREMENT ALLOWED IS                1.000E-02

     LINEAR EQUATION SOLVER TYPE         DIRECT SPARSE

 CONVERGENCE TOLERANCE PARAMETERS FOR FORCE    
     CRITERION FOR RESIDUAL FORCE     FOR A NONLINEAR PROBLEM          5.000E-03
     CRITERION FOR DISP.    CORRECTION IN A NONLINEAR PROBLEM          1.000E-02
     INITIAL VALUE OF TIME AVERAGE FORCE                               1.000E-02
     AVERAGE FORCE     IS TIME AVERAGE FORCE    
     ALTERNATE CRIT. FOR RESIDUAL FORCE     FOR A NONLINEAR PROBLEM    2.000E-02
     CRITERION FOR ZERO FORCE     RELATIVE TO TIME AVRG. FORCE         1.000E-05
     CRITERION FOR RESIDUAL FORCE     WHEN THERE IS ZERO FLUX          1.000E-05
     CRITERION FOR DISP.    CORRECTION WHEN THERE IS ZERO FLUX         1.000E-03
     CRITERION FOR RESIDUAL FORCE     FOR A LINEAR INCREMENT           1.000E-08
     FIELD CONVERSION RATIO                                             1.00    
     CRITERION FOR ZERO FORCE     REL. TO TIME AVRG. MAX. FORCE        1.000E-05
     CRITERION FOR ZERO DISP.    RELATIVE TO CHARACTERISTIC LENGTH     1.000E-08

     VOLUMETRIC STRAIN COMPATIBILITY TOLERANCE FOR HYBRID SOLIDS       1.000E-05
     AXIAL STRAIN COMPATIBILITY TOLERANCE FOR HYBRID BEAMS             1.000E-05
     TRANS. SHEAR STRAIN COMPATIBILITY TOLERANCE FOR HYBRID BEAMS      1.000E-05
     SOFT CONTACT CONSTRAINT COMPATIBILITY TOLERANCE FOR P>P0          5.000E-03
     SOFT CONTACT CONSTRAINT COMPATIBILITY TOLERANCE FOR P=0.0         0.100    
     CONTACT FORCE ERROR TOLERANCE FOR CONVERT SDI=YES                 1.00    
     DISPLACEMENT COMPATIBILITY TOLERANCE FOR DCOUP ELEMENTS           1.000E-05
     ROTATION COMPATIBILITY TOLERANCE FOR DCOUP ELEMENTS               1.000E-05

 EQUILIBRIUM WILL BE CHECKED FOR SEVERE DISCONTINUITY ITERATIONS

 TIME INCREMENTATION CONTROL PARAMETERS:
     FIRST EQUILIBRIUM ITERATION FOR CONSECUTIVE DIVERGENCE CHECK              4
     EQUILIBRIUM ITERATION AT WHICH LOG. CONVERGENCE RATE CHECK BEGINS         8
     EQUILIBRIUM ITERATION AFTER WHICH ALTERNATE RESIDUAL IS USED              9
     MAXIMUM EQUILIBRIUM ITERATIONS ALLOWED                                   16
     EQUILIBRIUM ITERATION COUNT FOR CUT-BACK IN NEXT INCREMENT               10
     MAXIMUM EQUILIB. ITERS IN TWO INCREMENTS FOR TIME INCREMENT INCREASE      4
     MAXIMUM ITERATIONS FOR SEVERE DISCONTINUITIES                            50
     MAXIMUM CUT-BACKS ALLOWED IN AN INCREMENT                                 5
     MAXIMUM DISCON. ITERS IN TWO INCREMENTS FOR TIME INCREMENT INCREASE      50
     MAXIMUM CONTACT AUGMENTATIONS FOR *SURFACE BEHAVIOR,AUGMENTED LAGRANGE   50
     CUT-BACK FACTOR AFTER DIVERGENCE                                 0.2500    
     CUT-BACK FACTOR FOR TOO SLOW CONVERGENCE                         0.5000    
     CUT-BACK FACTOR AFTER TOO MANY EQUILIBRIUM ITERATIONS            0.7500    
     CUT-BACK FACTOR AFTER TOO MANY SEVERE DISCONTINUITY ITERATIONS   0.2500    
     CUT-BACK FACTOR AFTER PROBLEMS IN ELEMENT ASSEMBLY               0.2500    
     INCREASE FACTOR AFTER TWO INCREMENTS THAT CONVERGE QUICKLY        1.500    
     MAX. TIME INCREMENT INCREASE FACTOR ALLOWED                       1.500    
     MAX. TIME INCREMENT INCREASE FACTOR ALLOWED (DYNAMICS)            1.250    
     MAX. TIME INCREMENT INCREASE FACTOR ALLOWED (DIFFUSION)           2.000    
     MINIMUM TIME INCREMENT RATIO FOR EXTRAPOLATION TO OCCUR          0.1000    
     MAX. RATIO OF TIME INCREMENT TO STABILITY LIMIT                   1.000    
     FRACTION OF STABILITY LIMIT FOR NEW TIME INCREMENT               0.9500    
     TIME INCREMENT INCREASE FACTOR BEFORE A TIME POINT                1.000    
     GLOBAL STABILIZATION CONTROL IS NOT USED

          PRINT OF INCREMENT NUMBER, TIME, ETC., EVERY    1  INCREMENTS

     THE MAXIMUM NUMBER OF INCREMENTS IN THIS STEP IS                     500

          LARGE DISPLACEMENT THEORY WILL BE USED

     LINEAR EXTRAPOLATION WILL BE USED

     CHARACTERISTIC ELEMENT LENGTH     1.050E-03

     DETAILS REGARDING ACTUAL SOLUTION WAVEFRONT REQUESTED

     DETAILED OUTPUT OF DIAGNOSTICS TO DATABASE REQUESTED

     PRINT OF INCREMENT NUMBER, TIME, ETC., TO THE MESSAGE FILE EVERY     1  INCREMENTS

     COLLECTING MODEL CONSTRAINT INFORMATION FOR OVERCONSTRAINT CHECKS

     COLLECTING STEP CONSTRAINT INFORMATION FOR OVERCONSTRAINT CHECKS


  INCREMENT     1 STARTS. ATTEMPT NUMBER  1, TIME INCREMENT  1.000E-03

  NUMBER OF EQUATIONS =      954     NUMBER OF FLOATING PT. OPERATIONS =  1.88E+04

     CHECK POINT   START OF SOLVER    

     CHECK POINT  END OF SOLVER       

       ELAPSED USER TIME (SEC)      =   0.0000    
       ELAPSED SYSTEM TIME (SEC)    =   0.0000    
       ELAPSED TOTAL CPU TIME (SEC) =   0.0000    
       ELAPSED WALLCLOCK TIME (SEC) =          0

               CONVERGENCE CHECKS FOR EQUILIBRIUM ITERATION     1


 AVERAGE FORCE                      3.575E-03   TIME AVG. FORCE       3.575E-03
 LARGEST RESIDUAL FORCE             4.354E-06   AT NODE        467   DOF  1
   INSTANCE: AL_ROD_QUDRACTIC-1                                                              
 LARGEST INCREMENT OF DISP.        -1.353E-09   AT NODE        477   DOF  1
   INSTANCE: AL_ROD_QUDRACTIC-1                                                              
 LARGEST CORRECTION TO DISP.       -1.353E-09   AT NODE        477   DOF  1
   INSTANCE: AL_ROD_QUDRACTIC-1                                                              
 ESTIMATE OF DISP.    CORRECTION    7.499E-14
 FORCE     EQUILIB. ACCEPTED BASED ON SMALL RESIDUAL AND ESTIMATED CORRECTION

 ITERATION SUMMARY FOR THE INCREMENT:   1 TOTAL ITERATIONS, OF WHICH
   0 ARE SEVERE DISCONTINUITY ITERATIONS AND  1 ARE EQUILIBRIUM ITERATIONS.

 TIME INCREMENT COMPLETED  1.000E-03,  FRACTION OF STEP COMPLETED  1.000E-03
 STEP TIME COMPLETED       1.000E-03,  TOTAL TIME COMPLETED        1.000E-03


  INCREMENT     2 STARTS. ATTEMPT NUMBER  1, TIME INCREMENT  1.000E-03

  NUMBER OF EQUATIONS =     1906     NUMBER OF FLOATING PT. OPERATIONS =  1.35E+05

     CHECK POINT   START OF SOLVER    

     CHECK POINT  END OF SOLVER       

       ELAPSED USER TIME (SEC)      =   0.0000    
       ELAPSED SYSTEM TIME (SEC)    =   0.0000    
       ELAPSED TOTAL CPU TIME (SEC) =   0.0000    
       ELAPSED WALLCLOCK TIME (SEC) =          0
 

 ***WARNING: THE SYSTEM MATRIX HAS 547 NEGATIVE EIGENVALUES.

     NEGATIVE EIGENVALUES MEAN THAT THE SYSTEM MATRIX IS NOT 
     POSITIVE DEFINITE:
     FOR EXAMPLE, A BIFURCATION (BUCKLING) LOAD MAY HAVE BEEN EXCEEDED.

               CONVERGENCE CHECKS FOR EQUILIBRIUM ITERATION     1


 AVERAGE FORCE                      1.717E-02   TIME AVG. FORCE       1.037E-02
 LARGEST RESIDUAL FORCE             4.902E-06   AT NODE        943   DOF  1
   INSTANCE: AL_ROD_QUDRACTIC-1                                                              
 LARGEST INCREMENT OF DISP.        -1.353E-09   AT NODE        477   DOF  1
   INSTANCE: AL_ROD_QUDRACTIC-1                                                              
 LARGEST CORRECTION TO DISP.       -8.168E-16   AT NODE        943   DOF  1
   INSTANCE: AL_ROD_QUDRACTIC-1                                                              
          THE FORCE     EQUILIBRIUM EQUATIONS HAVE CONVERGED
          TIME INCREMENT MAY NOW INCREASE TO    1.500E-03

 ITERATION SUMMARY FOR THE INCREMENT:   1 TOTAL ITERATIONS, OF WHICH
   0 ARE SEVERE DISCONTINUITY ITERATIONS AND  1 ARE EQUILIBRIUM ITERATIONS.

 TIME INCREMENT COMPLETED  1.000E-03,  FRACTION OF STEP COMPLETED  2.000E-03
 STEP TIME COMPLETED       2.000E-03,  TOTAL TIME COMPLETED        2.000E-03


  INCREMENT     3 STARTS. ATTEMPT NUMBER  1, TIME INCREMENT  1.500E-03

  NUMBER OF EQUATIONS =     1906     NUMBER OF FLOATING PT. OPERATIONS =  1.35E+05

     CHECK POINT   START OF SOLVER    

     CHECK POINT  END OF SOLVER       

       ELAPSED USER TIME (SEC)      =   0.0000    
       ELAPSED SYSTEM TIME (SEC)    =   0.0000    
       ELAPSED TOTAL CPU TIME (SEC) =   0.0000    
       ELAPSED WALLCLOCK TIME (SEC) =          0
 

 ***WARNING: THE SYSTEM MATRIX HAS 547 NEGATIVE EIGENVALUES.
             EXPLANATIONS ARE SUGGESTED AFTER THE FIRST OCCURRENCE OF THIS MESSAGE.

               CONVERGENCE CHECKS FOR EQUILIBRIUM ITERATION     1


 AVERAGE FORCE                      3.005E-02   TIME AVG. FORCE       1.693E-02
 LARGEST RESIDUAL FORCE             4.095E-06   AT NODE        920   DOF  1
   INSTANCE: AL_ROD_QUDRACTIC-1                                                              
 LARGEST INCREMENT OF DISP.        -2.029E-09   AT NODE        477   DOF  1
   INSTANCE: AL_ROD_QUDRACTIC-1                                                              
 LARGEST CORRECTION TO DISP.        2.005E-15   AT NODE        940   DOF  1
   INSTANCE: AL_ROD_QUDRACTIC-1                                                              
          THE FORCE     EQUILIBRIUM EQUATIONS HAVE CONVERGED
          TIME INCREMENT MAY NOW INCREASE TO    2.250E-03

 ITERATION SUMMARY FOR THE INCREMENT:   1 TOTAL ITERATIONS, OF WHICH
   0 ARE SEVERE DISCONTINUITY ITERATIONS AND  1 ARE EQUILIBRIUM ITERATIONS.

 TIME INCREMENT COMPLETED  1.500E-03,  FRACTION OF STEP COMPLETED  3.500E-03
 STEP TIME COMPLETED       3.500E-03,  TOTAL TIME COMPLETED        3.500E-03


  INCREMENT     4 STARTS. ATTEMPT NUMBER  1, TIME INCREMENT  2.250E-03

  NUMBER OF EQUATIONS =     1906     NUMBER OF FLOATING PT. OPERATIONS =  1.35E+05

     CHECK POINT   START OF SOLVER    

     CHECK POINT  END OF SOLVER       

       ELAPSED USER TIME (SEC)      =   0.0000    
       ELAPSED SYSTEM TIME (SEC)    =   0.0000    
       ELAPSED TOTAL CPU TIME (SEC) =   0.0000    
       ELAPSED WALLCLOCK TIME (SEC) =          0
 

 ***WARNING: THE SYSTEM MATRIX HAS 547 NEGATIVE EIGENVALUES.
             EXPLANATIONS ARE SUGGESTED AFTER THE FIRST OCCURRENCE OF THIS MESSAGE.

               CONVERGENCE CHECKS FOR EQUILIBRIUM ITERATION     1


 AVERAGE FORCE                      4.937E-02   TIME AVG. FORCE       2.504E-02
 LARGEST RESIDUAL FORCE            -5.382E-06   AT NODE        951   DOF  1
   INSTANCE: AL_ROD_QUDRACTIC-1                                                              
 LARGEST INCREMENT OF DISP.        -3.044E-09   AT NODE        477   DOF  1
   INSTANCE: AL_ROD_QUDRACTIC-1                                                              
 LARGEST CORRECTION TO DISP.       -9.667E-16   AT NODE        692   DOF  1
   INSTANCE: AL_ROD_QUDRACTIC-1                                                              
          THE FORCE     EQUILIBRIUM EQUATIONS HAVE CONVERGED
          TIME INCREMENT MAY NOW INCREASE TO    3.375E-03

 ITERATION SUMMARY FOR THE INCREMENT:   1 TOTAL ITERATIONS, OF WHICH
   0 ARE SEVERE DISCONTINUITY ITERATIONS AND  1 ARE EQUILIBRIUM ITERATIONS.

 TIME INCREMENT COMPLETED  2.250E-03,  FRACTION OF STEP COMPLETED  5.750E-03
 STEP TIME COMPLETED       5.750E-03,  TOTAL TIME COMPLETED        5.750E-03


  INCREMENT     5 STARTS. ATTEMPT NUMBER  1, TIME INCREMENT  3.375E-03

  NUMBER OF EQUATIONS =     1906     NUMBER OF FLOATING PT. OPERATIONS =  1.35E+05

     CHECK POINT   START OF SOLVER    

     CHECK POINT  END OF SOLVER       

       ELAPSED USER TIME (SEC)      =   0.0000    
       ELAPSED SYSTEM TIME (SEC)    =   0.0000    
       ELAPSED TOTAL CPU TIME (SEC) =   0.0000    
       ELAPSED WALLCLOCK TIME (SEC) =          0
 

 ***WARNING: THE SYSTEM MATRIX HAS 547 NEGATIVE EIGENVALUES.
             EXPLANATIONS ARE SUGGESTED AFTER THE FIRST OCCURRENCE OF THIS MESSAGE.

               CONVERGENCE CHECKS FOR EQUILIBRIUM ITERATION     1


 AVERAGE FORCE                      7.834E-02   TIME AVG. FORCE       3.570E-02
 LARGEST RESIDUAL FORCE             5.133E-06   AT NODE        932   DOF  1
   INSTANCE: AL_ROD_QUDRACTIC-1                                                              
 LARGEST INCREMENT OF DISP.        -4.566E-09   AT NODE        477   DOF  1
   INSTANCE: AL_ROD_QUDRACTIC-1                                                              
 LARGEST CORRECTION TO DISP.       -1.166E-15   AT NODE        876   DOF  1
   INSTANCE: AL_ROD_QUDRACTIC-1                                                              
          THE FORCE     EQUILIBRIUM EQUATIONS HAVE CONVERGED
          TIME INCREMENT MAY NOW INCREASE TO    5.063E-03

 ITERATION SUMMARY FOR THE INCREMENT:   1 TOTAL ITERATIONS, OF WHICH
   0 ARE SEVERE DISCONTINUITY ITERATIONS AND  1 ARE EQUILIBRIUM ITERATIONS.

 TIME INCREMENT COMPLETED  3.375E-03,  FRACTION OF STEP COMPLETED  9.125E-03
 STEP TIME COMPLETED       9.125E-03,  TOTAL TIME COMPLETED        9.125E-03


  INCREMENT     6 STARTS. ATTEMPT NUMBER  1, TIME INCREMENT  5.063E-03

  NUMBER OF EQUATIONS =     1906     NUMBER OF FLOATING PT. OPERATIONS =  1.35E+05

     CHECK POINT   START OF SOLVER    

     CHECK POINT  END OF SOLVER       

       ELAPSED USER TIME (SEC)      =   0.0000    
       ELAPSED SYSTEM TIME (SEC)    =   0.0000    
       ELAPSED TOTAL CPU TIME (SEC) =   0.0000    
       ELAPSED WALLCLOCK TIME (SEC) =          0
 

 ***WARNING: THE SYSTEM MATRIX HAS 547 NEGATIVE EIGENVALUES.
             EXPLANATIONS ARE SUGGESTED AFTER THE FIRST OCCURRENCE OF THIS MESSAGE.

               CONVERGENCE CHECKS FOR EQUILIBRIUM ITERATION     1


 AVERAGE FORCE                      0.122       TIME AVG. FORCE       5.005E-02
 LARGEST RESIDUAL FORCE            -5.494E-06   AT NODE        895   DOF  1
   INSTANCE: AL_ROD_QUDRACTIC-1                                                              
 LARGEST INCREMENT OF DISP.        -6.849E-09   AT NODE        477   DOF  1
   INSTANCE: AL_ROD_QUDRACTIC-1                                                              
 LARGEST CORRECTION TO DISP.        2.051E-15   AT NODE        372   DOF  1
   INSTANCE: AL_ROD_QUDRACTIC-1                                                              
          THE FORCE     EQUILIBRIUM EQUATIONS HAVE CONVERGED
          TIME INCREMENT MAY NOW INCREASE TO    7.594E-03

 ITERATION SUMMARY FOR THE INCREMENT:   1 TOTAL ITERATIONS, OF WHICH
   0 ARE SEVERE DISCONTINUITY ITERATIONS AND  1 ARE EQUILIBRIUM ITERATIONS.

 TIME INCREMENT COMPLETED  5.063E-03,  FRACTION OF STEP COMPLETED  1.419E-02
 STEP TIME COMPLETED       1.419E-02,  TOTAL TIME COMPLETED        1.419E-02


  INCREMENT     7 STARTS. ATTEMPT NUMBER  1, TIME INCREMENT  7.594E-03

  NUMBER OF EQUATIONS =     1906     NUMBER OF FLOATING PT. OPERATIONS =  1.35E+05

     CHECK POINT   START OF SOLVER    

     CHECK POINT  END OF SOLVER       

       ELAPSED USER TIME (SEC)      =   0.0000    
       ELAPSED SYSTEM TIME (SEC)    =   0.0000    
       ELAPSED TOTAL CPU TIME (SEC) =   0.0000    
       ELAPSED WALLCLOCK TIME (SEC) =          0
 

 ***WARNING: THE SYSTEM MATRIX HAS 547 NEGATIVE EIGENVALUES.
             EXPLANATIONS ARE SUGGESTED AFTER THE FIRST OCCURRENCE OF THIS MESSAGE.

               CONVERGENCE CHECKS FOR EQUILIBRIUM ITERATION     1


 AVERAGE FORCE                      0.187       TIME AVG. FORCE       6.962E-02
 LARGEST RESIDUAL FORCE             4.958E-06   AT NODE        915   DOF  1
   INSTANCE: AL_ROD_QUDRACTIC-1                                                              
 LARGEST INCREMENT OF DISP.        -1.027E-08   AT NODE        477   DOF  1
   INSTANCE: AL_ROD_QUDRACTIC-1                                                              
 LARGEST CORRECTION TO DISP.        4.037E-15   AT NODE        477   DOF  1
   INSTANCE: AL_ROD_QUDRACTIC-1                                                              
          THE FORCE     EQUILIBRIUM EQUATIONS HAVE CONVERGED
          TIME INCREMENT MAY NOW INCREASE TO    1.000E-02

 ITERATION SUMMARY FOR THE INCREMENT:   1 TOTAL ITERATIONS, OF WHICH
   0 ARE SEVERE DISCONTINUITY ITERATIONS AND  1 ARE EQUILIBRIUM ITERATIONS.

 TIME INCREMENT COMPLETED  7.594E-03,  FRACTION OF STEP COMPLETED  2.178E-02
 STEP TIME COMPLETED       2.178E-02,  TOTAL TIME COMPLETED        2.178E-02


  INCREMENT     8 STARTS. ATTEMPT NUMBER  1, TIME INCREMENT  1.000E-02

  NUMBER OF EQUATIONS =     1906     NUMBER OF FLOATING PT. OPERATIONS =  1.35E+05

     CHECK POINT   START OF SOLVER    

     CHECK POINT  END OF SOLVER       

       ELAPSED USER TIME (SEC)      =   0.0000    
       ELAPSED SYSTEM TIME (SEC)    =   0.0000    
       ELAPSED TOTAL CPU TIME (SEC) =   0.0000    
       ELAPSED WALLCLOCK TIME (SEC) =          0
 

 ***WARNING: THE SYSTEM MATRIX HAS 547 NEGATIVE EIGENVALUES.
             EXPLANATIONS ARE SUGGESTED AFTER THE FIRST OCCURRENCE OF THIS MESSAGE.

               CONVERGENCE CHECKS FOR EQUILIBRIUM ITERATION     1


 AVERAGE FORCE                      0.273       TIME AVG. FORCE       9.502E-02
 LARGEST RESIDUAL FORCE            -4.214E-06   AT NODE        949   DOF  1
   INSTANCE: AL_ROD_QUDRACTIC-1                                                              
 LARGEST INCREMENT OF DISP.        -1.353E-08   AT NODE        477   DOF  1
   INSTANCE: AL_ROD_QUDRACTIC-1                                                              
 LARGEST CORRECTION TO DISP.        3.331E-15   AT NODE        790   DOF  1
   INSTANCE: AL_ROD_QUDRACTIC-1                                                              
          THE FORCE     EQUILIBRIUM EQUATIONS HAVE CONVERGED

 ITERATION SUMMARY FOR THE INCREMENT:   1 TOTAL ITERATIONS, OF WHICH
   0 ARE SEVERE DISCONTINUITY ITERATIONS AND  1 ARE EQUILIBRIUM ITERATIONS.

 TIME INCREMENT COMPLETED  1.000E-02,  FRACTION OF STEP COMPLETED  3.178E-02
 STEP TIME COMPLETED       3.178E-02,  TOTAL TIME COMPLETED        3.178E-02


  INCREMENT     9 STARTS. ATTEMPT NUMBER  1, TIME INCREMENT  1.000E-02

  NUMBER OF EQUATIONS =     1906     NUMBER OF FLOATING PT. OPERATIONS =  1.35E+05

     CHECK POINT   START OF SOLVER    

     CHECK POINT  END OF SOLVER       

       ELAPSED USER TIME (SEC)      =   0.0000    
       ELAPSED SYSTEM TIME (SEC)    =   0.0000    
       ELAPSED TOTAL CPU TIME (SEC) =   0.0000    
       ELAPSED WALLCLOCK TIME (SEC) =          0
 

 ***WARNING: THE SYSTEM MATRIX HAS 547 NEGATIVE EIGENVALUES.
             EXPLANATIONS ARE SUGGESTED AFTER THE FIRST OCCURRENCE OF THIS MESSAGE.

               CONVERGENCE CHECKS FOR EQUILIBRIUM ITERATION     1


 AVERAGE FORCE                      0.359       TIME AVG. FORCE       0.124    
 LARGEST RESIDUAL FORCE            -5.586E-06   AT NODE        938   DOF  1
   INSTANCE: AL_ROD_QUDRACTIC-1                                                              
 LARGEST INCREMENT OF DISP.        -1.353E-08   AT NODE        477   DOF  1
   INSTANCE: AL_ROD_QUDRACTIC-1                                                              
 LARGEST CORRECTION TO DISP.        4.430E-15   AT NODE        953   DOF  1
   INSTANCE: AL_ROD_QUDRACTIC-1                                                              
          THE FORCE     EQUILIBRIUM EQUATIONS HAVE CONVERGED

 ITERATION SUMMARY FOR THE INCREMENT:   1 TOTAL ITERATIONS, OF WHICH
   0 ARE SEVERE DISCONTINUITY ITERATIONS AND  1 ARE EQUILIBRIUM ITERATIONS.

 TIME INCREMENT COMPLETED  1.000E-02,  FRACTION OF STEP COMPLETED  4.178E-02
 STEP TIME COMPLETED       4.178E-02,  TOTAL TIME COMPLETED        4.178E-02


  INCREMENT    10 STARTS. ATTEMPT NUMBER  1, TIME INCREMENT  1.000E-02

  NUMBER OF EQUATIONS =     1906     NUMBER OF FLOATING PT. OPERATIONS =  1.35E+05

     CHECK POINT   START OF SOLVER    

     CHECK POINT  END OF SOLVER       

       ELAPSED USER TIME (SEC)      =   0.0000    
       ELAPSED SYSTEM TIME (SEC)    =   0.0000    
       ELAPSED TOTAL CPU TIME (SEC) =   0.0000    
       ELAPSED WALLCLOCK TIME (SEC) =          0
 

 ***WARNING: THE SYSTEM MATRIX HAS 547 NEGATIVE EIGENVALUES.
             EXPLANATIONS ARE SUGGESTED AFTER THE FIRST OCCURRENCE OF THIS MESSAGE.

               CONVERGENCE CHECKS FOR EQUILIBRIUM ITERATION     1


 AVERAGE FORCE                      0.445       TIME AVG. FORCE       0.156    
 LARGEST RESIDUAL FORCE             4.405E-06   AT NODE        476   DOF  1
   INSTANCE: AL_ROD_QUDRACTIC-1                                                              
 LARGEST INCREMENT OF DISP.        -1.353E-08   AT NODE        477   DOF  1
   INSTANCE: AL_ROD_QUDRACTIC-1                                                              
 LARGEST CORRECTION TO DISP.        4.924E-15   AT NODE        952   DOF  1
   INSTANCE: AL_ROD_QUDRACTIC-1                                                              
          THE FORCE     EQUILIBRIUM EQUATIONS HAVE CONVERGED

 ITERATION SUMMARY FOR THE INCREMENT:   1 TOTAL ITERATIONS, OF WHICH
   0 ARE SEVERE DISCONTINUITY ITERATIONS AND  1 ARE EQUILIBRIUM ITERATIONS.

 TIME INCREMENT COMPLETED  1.000E-02,  FRACTION OF STEP COMPLETED  5.178E-02
 STEP TIME COMPLETED       5.178E-02,  TOTAL TIME COMPLETED        5.178E-02


  INCREMENT    11 STARTS. ATTEMPT NUMBER  1, TIME INCREMENT  1.000E-02

  NUMBER OF EQUATIONS =     1906     NUMBER OF FLOATING PT. OPERATIONS =  1.35E+05

     CHECK POINT   START OF SOLVER    

     CHECK POINT  END OF SOLVER       

       ELAPSED USER TIME (SEC)      =   0.0000    
       ELAPSED SYSTEM TIME (SEC)    =   0.0000    
       ELAPSED TOTAL CPU TIME (SEC) =   0.0000    
       ELAPSED WALLCLOCK TIME (SEC) =          0
 

 ***WARNING: THE SYSTEM MATRIX HAS 547 NEGATIVE EIGENVALUES.
             EXPLANATIONS ARE SUGGESTED AFTER THE FIRST OCCURRENCE OF THIS MESSAGE.

               CONVERGENCE CHECKS FOR EQUILIBRIUM ITERATION     1


 AVERAGE FORCE                      0.530       TIME AVG. FORCE       0.190    
 LARGEST RESIDUAL FORCE             5.241E-06   AT NODE        455   DOF  1
   INSTANCE: AL_ROD_QUDRACTIC-1                                                              
 LARGEST INCREMENT OF DISP.        -1.353E-08   AT NODE        477   DOF  1
   INSTANCE: AL_ROD_QUDRACTIC-1                                                              
 LARGEST CORRECTION TO DISP.        5.126E-15   AT NODE        476   DOF  1
   INSTANCE: AL_ROD_QUDRACTIC-1                                                              
          THE FORCE     EQUILIBRIUM EQUATIONS HAVE CONVERGED

 ITERATION SUMMARY FOR THE INCREMENT:   1 TOTAL ITERATIONS, OF WHICH
   0 ARE SEVERE DISCONTINUITY ITERATIONS AND  1 ARE EQUILIBRIUM ITERATIONS.

 TIME INCREMENT COMPLETED  1.000E-02,  FRACTION OF STEP COMPLETED  6.178E-02
 STEP TIME COMPLETED       6.178E-02,  TOTAL TIME COMPLETED        6.178E-02


  INCREMENT    12 STARTS. ATTEMPT NUMBER  1, TIME INCREMENT  1.000E-02

  NUMBER OF EQUATIONS =     1906     NUMBER OF FLOATING PT. OPERATIONS =  1.35E+05

     CHECK POINT   START OF SOLVER    

     CHECK POINT  END OF SOLVER       

       ELAPSED USER TIME (SEC)      =  0.10000    
       ELAPSED SYSTEM TIME (SEC)    =   0.0000    
       ELAPSED TOTAL CPU TIME (SEC) =  0.10000    
       ELAPSED WALLCLOCK TIME (SEC) =          0
 

 ***WARNING: THE SYSTEM MATRIX HAS 547 NEGATIVE EIGENVALUES.
             EXPLANATIONS ARE SUGGESTED AFTER THE FIRST OCCURRENCE OF THIS MESSAGE.

               CONVERGENCE CHECKS FOR EQUILIBRIUM ITERATION     1


 AVERAGE FORCE                      0.616       TIME AVG. FORCE       0.226    
 LARGEST RESIDUAL FORCE             5.186E-06   AT NODE        456   DOF  1
   INSTANCE: AL_ROD_QUDRACTIC-1                                                              
 LARGEST INCREMENT OF DISP.        -1.353E-08   AT NODE        477   DOF  1
   INSTANCE: AL_ROD_QUDRACTIC-1                                                              
 LARGEST CORRECTION TO DISP.        4.905E-15   AT NODE        953   DOF  1
   INSTANCE: AL_ROD_QUDRACTIC-1                                                              
          THE FORCE     EQUILIBRIUM EQUATIONS HAVE CONVERGED

 ITERATION SUMMARY FOR THE INCREMENT:   1 TOTAL ITERATIONS, OF WHICH
   0 ARE SEVERE DISCONTINUITY ITERATIONS AND  1 ARE EQUILIBRIUM ITERATIONS.

 TIME INCREMENT COMPLETED  1.000E-02,  FRACTION OF STEP COMPLETED  7.178E-02
 STEP TIME COMPLETED       7.178E-02,  TOTAL TIME COMPLETED        7.178E-02


  INCREMENT    13 STARTS. ATTEMPT NUMBER  1, TIME INCREMENT  1.000E-02

  NUMBER OF EQUATIONS =     1906     NUMBER OF FLOATING PT. OPERATIONS =  1.35E+05

     CHECK POINT   START OF SOLVER    

     CHECK POINT  END OF SOLVER       

       ELAPSED USER TIME (SEC)      =   0.0000    
       ELAPSED SYSTEM TIME (SEC)    =   0.0000    
       ELAPSED TOTAL CPU TIME (SEC) =   0.0000    
       ELAPSED WALLCLOCK TIME (SEC) =          0
 

 ***WARNING: THE SYSTEM MATRIX HAS 547 NEGATIVE EIGENVALUES.
             EXPLANATIONS ARE SUGGESTED AFTER THE FIRST OCCURRENCE OF THIS MESSAGE.

               CONVERGENCE CHECKS FOR EQUILIBRIUM ITERATION     1


 AVERAGE FORCE                      0.702       TIME AVG. FORCE       0.262    
 LARGEST RESIDUAL FORCE            -4.811E-06   AT NODE        762   DOF  1
   INSTANCE: AL_ROD_QUDRACTIC-1                                                              
 LARGEST INCREMENT OF DISP.        -1.353E-08   AT NODE        477   DOF  1
   INSTANCE: AL_ROD_QUDRACTIC-1                                                              
 LARGEST CORRECTION TO DISP.        3.987E-15   AT NODE        331   DOF  1
   INSTANCE: AL_ROD_QUDRACTIC-1                                                              
          THE FORCE     EQUILIBRIUM EQUATIONS HAVE CONVERGED

 ITERATION SUMMARY FOR THE INCREMENT:   1 TOTAL ITERATIONS, OF WHICH
   0 ARE SEVERE DISCONTINUITY ITERATIONS AND  1 ARE EQUILIBRIUM ITERATIONS.

 TIME INCREMENT COMPLETED  1.000E-02,  FRACTION OF STEP COMPLETED  8.178E-02
 STEP TIME COMPLETED       8.178E-02,  TOTAL TIME COMPLETED        8.178E-02


  INCREMENT    14 STARTS. ATTEMPT NUMBER  1, TIME INCREMENT  1.000E-02

  NUMBER OF EQUATIONS =     1906     NUMBER OF FLOATING PT. OPERATIONS =  1.35E+05

     CHECK POINT   START OF SOLVER    

     CHECK POINT  END OF SOLVER       

       ELAPSED USER TIME (SEC)      =   0.0000    
       ELAPSED SYSTEM TIME (SEC)    =   0.0000    
       ELAPSED TOTAL CPU TIME (SEC) =   0.0000    
       ELAPSED WALLCLOCK TIME (SEC) =          0
 

 ***WARNING: THE SYSTEM MATRIX HAS 547 NEGATIVE EIGENVALUES.
             EXPLANATIONS ARE SUGGESTED AFTER THE FIRST OCCURRENCE OF THIS MESSAGE.

               CONVERGENCE CHECKS FOR EQUILIBRIUM ITERATION     1


 AVERAGE FORCE                      0.788       TIME AVG. FORCE       0.300    
 LARGEST RESIDUAL FORCE            -4.862E-06   AT NODE        444   DOF  1
   INSTANCE: AL_ROD_QUDRACTIC-1                                                              
 LARGEST INCREMENT OF DISP.        -1.353E-08   AT NODE        477   DOF  1
   INSTANCE: AL_ROD_QUDRACTIC-1                                                              
 LARGEST CORRECTION TO DISP.        5.938E-15   AT NODE        952   DOF  1
   INSTANCE: AL_ROD_QUDRACTIC-1                                                              
          THE FORCE     EQUILIBRIUM EQUATIONS HAVE CONVERGED

 ITERATION SUMMARY FOR THE INCREMENT:   1 TOTAL ITERATIONS, OF WHICH
   0 ARE SEVERE DISCONTINUITY ITERATIONS AND  1 ARE EQUILIBRIUM ITERATIONS.

 TIME INCREMENT COMPLETED  1.000E-02,  FRACTION OF STEP COMPLETED  9.178E-02
 STEP TIME COMPLETED       9.178E-02,  TOTAL TIME COMPLETED        9.178E-02


  INCREMENT    15 STARTS. ATTEMPT NUMBER  1, TIME INCREMENT  1.000E-02

  NUMBER OF EQUATIONS =     1906     NUMBER OF FLOATING PT. OPERATIONS =  1.35E+05

     CHECK POINT   START OF SOLVER    

     CHECK POINT  END OF SOLVER       

       ELAPSED USER TIME (SEC)      =   0.0000    
       ELAPSED SYSTEM TIME (SEC)    =   0.0000    
       ELAPSED TOTAL CPU TIME (SEC) =   0.0000    
       ELAPSED WALLCLOCK TIME (SEC) =          0
 

 ***WARNING: THE SYSTEM MATRIX HAS 547 NEGATIVE EIGENVALUES.
             EXPLANATIONS ARE SUGGESTED AFTER THE FIRST OCCURRENCE OF THIS MESSAGE.

               CONVERGENCE CHECKS FOR EQUILIBRIUM ITERATION     1


 AVERAGE FORCE                      0.874       TIME AVG. FORCE       0.338    
 LARGEST RESIDUAL FORCE             5.258E-06   AT NODE        446   DOF  1
   INSTANCE: AL_ROD_QUDRACTIC-1                                                              
 LARGEST INCREMENT OF DISP.        -1.353E-08   AT NODE        477   DOF  1
   INSTANCE: AL_ROD_QUDRACTIC-1                                                              
 LARGEST CORRECTION TO DISP.        4.447E-15   AT NODE        322   DOF  1
   INSTANCE: AL_ROD_QUDRACTIC-1                                                              
          THE FORCE     EQUILIBRIUM EQUATIONS HAVE CONVERGED

 ITERATION SUMMARY FOR THE INCREMENT:   1 TOTAL ITERATIONS, OF WHICH
   0 ARE SEVERE DISCONTINUITY ITERATIONS AND  1 ARE EQUILIBRIUM ITERATIONS.

 TIME INCREMENT COMPLETED  1.000E-02,  FRACTION OF STEP COMPLETED  0.102    
 STEP TIME COMPLETED       0.102    ,  TOTAL TIME COMPLETED        0.102    


  INCREMENT    16 STARTS. ATTEMPT NUMBER  1, TIME INCREMENT  1.000E-02

  NUMBER OF EQUATIONS =     1906     NUMBER OF FLOATING PT. OPERATIONS =  1.35E+05

     CHECK POINT   START OF SOLVER    

     CHECK POINT  END OF SOLVER       

       ELAPSED USER TIME (SEC)      =   0.0000    
       ELAPSED SYSTEM TIME (SEC)    =   0.0000    
       ELAPSED TOTAL CPU TIME (SEC) =   0.0000    
       ELAPSED WALLCLOCK TIME (SEC) =          0
 

 ***WARNING: THE SYSTEM MATRIX HAS 547 NEGATIVE EIGENVALUES.
             EXPLANATIONS ARE SUGGESTED AFTER THE FIRST OCCURRENCE OF THIS MESSAGE.

               CONVERGENCE CHECKS FOR EQUILIBRIUM ITERATION     1


 AVERAGE FORCE                      0.960       TIME AVG. FORCE       0.377    
 LARGEST RESIDUAL FORCE             4.584E-06   AT NODE        468   DOF  1
   INSTANCE: AL_ROD_QUDRACTIC-1                                                              
 LARGEST INCREMENT OF DISP.        -1.353E-08   AT NODE        477   DOF  1
   INSTANCE: AL_ROD_QUDRACTIC-1                                                              
 LARGEST CORRECTION TO DISP.        5.064E-15   AT NODE        952   DOF  1
   INSTANCE: AL_ROD_QUDRACTIC-1                                                              
          THE FORCE     EQUILIBRIUM EQUATIONS HAVE CONVERGED

 ITERATION SUMMARY FOR THE INCREMENT:   1 TOTAL ITERATIONS, OF WHICH
   0 ARE SEVERE DISCONTINUITY ITERATIONS AND  1 ARE EQUILIBRIUM ITERATIONS.

 TIME INCREMENT COMPLETED  1.000E-02,  FRACTION OF STEP COMPLETED  0.112    
 STEP TIME COMPLETED       0.112    ,  TOTAL TIME COMPLETED        0.112    


  INCREMENT    17 STARTS. ATTEMPT NUMBER  1, TIME INCREMENT  1.000E-02

  NUMBER OF EQUATIONS =     1906     NUMBER OF FLOATING PT. OPERATIONS =  1.35E+05

     CHECK POINT   START OF SOLVER    

     CHECK POINT  END OF SOLVER       

       ELAPSED USER TIME (SEC)      =   0.0000    
       ELAPSED SYSTEM TIME (SEC)    =   0.0000    
       ELAPSED TOTAL CPU TIME (SEC) =   0.0000    
       ELAPSED WALLCLOCK TIME (SEC) =          0
 

 ***WARNING: THE SYSTEM MATRIX HAS 547 NEGATIVE EIGENVALUES.
             EXPLANATIONS ARE SUGGESTED AFTER THE FIRST OCCURRENCE OF THIS MESSAGE.

               CONVERGENCE CHECKS FOR EQUILIBRIUM ITERATION     1


 AVERAGE FORCE                       1.05       TIME AVG. FORCE       0.416    
 LARGEST RESIDUAL FORCE            -4.389E-06   AT NODE        953   DOF  1
   INSTANCE: AL_ROD_QUDRACTIC-1                                                              
 LARGEST INCREMENT OF DISP.        -1.353E-08   AT NODE        477   DOF  1
   INSTANCE: AL_ROD_QUDRACTIC-1                                                              
 LARGEST CORRECTION TO DISP.        4.628E-15   AT NODE        477   DOF  1
   INSTANCE: AL_ROD_QUDRACTIC-1                                                              
          THE FORCE     EQUILIBRIUM EQUATIONS HAVE CONVERGED

 ITERATION SUMMARY FOR THE INCREMENT:   1 TOTAL ITERATIONS, OF WHICH
   0 ARE SEVERE DISCONTINUITY ITERATIONS AND  1 ARE EQUILIBRIUM ITERATIONS.

 TIME INCREMENT COMPLETED  1.000E-02,  FRACTION OF STEP COMPLETED  0.122    
 STEP TIME COMPLETED       0.122    ,  TOTAL TIME COMPLETED        0.122    


  INCREMENT    18 STARTS. ATTEMPT NUMBER  1, TIME INCREMENT  1.000E-02

  NUMBER OF EQUATIONS =     1906     NUMBER OF FLOATING PT. OPERATIONS =  1.35E+05

     CHECK POINT   START OF SOLVER    

     CHECK POINT  END OF SOLVER       

       ELAPSED USER TIME (SEC)      =   0.0000    
       ELAPSED SYSTEM TIME (SEC)    =   0.0000    
       ELAPSED TOTAL CPU TIME (SEC) =   0.0000    
       ELAPSED WALLCLOCK TIME (SEC) =          0
 

 ***WARNING: THE SYSTEM MATRIX HAS 547 NEGATIVE EIGENVALUES.
             EXPLANATIONS ARE SUGGESTED AFTER THE FIRST OCCURRENCE OF THIS MESSAGE.

               CONVERGENCE CHECKS FOR EQUILIBRIUM ITERATION     1


 AVERAGE FORCE                       1.13       TIME AVG. FORCE       0.456    
 LARGEST RESIDUAL FORCE            -4.931E-06   AT NODE        933   DOF  1
   INSTANCE: AL_ROD_QUDRACTIC-1                                                              
 LARGEST INCREMENT OF DISP.        -1.353E-08   AT NODE        477   DOF  1
   INSTANCE: AL_ROD_QUDRACTIC-1                                                              
 LARGEST CORRECTION TO DISP.        5.548E-15   AT NODE        477   DOF  1
   INSTANCE: AL_ROD_QUDRACTIC-1                                                              
          THE FORCE     EQUILIBRIUM EQUATIONS HAVE CONVERGED

 ITERATION SUMMARY FOR THE INCREMENT:   1 TOTAL ITERATIONS, OF WHICH
   0 ARE SEVERE DISCONTINUITY ITERATIONS AND  1 ARE EQUILIBRIUM ITERATIONS.

 TIME INCREMENT COMPLETED  1.000E-02,  FRACTION OF STEP COMPLETED  0.132    
 STEP TIME COMPLETED       0.132    ,  TOTAL TIME COMPLETED        0.132    


  INCREMENT    19 STARTS. ATTEMPT NUMBER  1, TIME INCREMENT  1.000E-02

  NUMBER OF EQUATIONS =     1906     NUMBER OF FLOATING PT. OPERATIONS =  1.35E+05

     CHECK POINT   START OF SOLVER    

     CHECK POINT  END OF SOLVER       

       ELAPSED USER TIME (SEC)      =   0.0000    
       ELAPSED SYSTEM TIME (SEC)    =   0.0000    
       ELAPSED TOTAL CPU TIME (SEC) =   0.0000    
       ELAPSED WALLCLOCK TIME (SEC) =          0
 

 ***WARNING: THE SYSTEM MATRIX HAS 547 NEGATIVE EIGENVALUES.
             EXPLANATIONS ARE SUGGESTED AFTER THE FIRST OCCURRENCE OF THIS MESSAGE.

               CONVERGENCE CHECKS FOR EQUILIBRIUM ITERATION     1


 AVERAGE FORCE                       1.22       TIME AVG. FORCE       0.496    
 LARGEST RESIDUAL FORCE            -6.366E-06   AT NODE        948   DOF  1
   INSTANCE: AL_ROD_QUDRACTIC-1                                                              
 LARGEST INCREMENT OF DISP.        -1.353E-08   AT NODE        477   DOF  1
   INSTANCE: AL_ROD_QUDRACTIC-1                                                              
 LARGEST CORRECTION TO DISP.        3.353E-15   AT NODE        797   DOF  1
   INSTANCE: AL_ROD_QUDRACTIC-1                                                              
          THE FORCE     EQUILIBRIUM EQUATIONS HAVE CONVERGED

 ITERATION SUMMARY FOR THE INCREMENT:   1 TOTAL ITERATIONS, OF WHICH
   0 ARE SEVERE DISCONTINUITY ITERATIONS AND  1 ARE EQUILIBRIUM ITERATIONS.

 TIME INCREMENT COMPLETED  1.000E-02,  FRACTION OF STEP COMPLETED  0.142    
 STEP TIME COMPLETED       0.142    ,  TOTAL TIME COMPLETED        0.142    


  INCREMENT    20 STARTS. ATTEMPT NUMBER  1, TIME INCREMENT  1.000E-02

  NUMBER OF EQUATIONS =     1906     NUMBER OF FLOATING PT. OPERATIONS =  1.35E+05

     CHECK POINT   START OF SOLVER    

     CHECK POINT  END OF SOLVER       

       ELAPSED USER TIME (SEC)      =   0.0000    
       ELAPSED SYSTEM TIME (SEC)    =   0.0000    
       ELAPSED TOTAL CPU TIME (SEC) =   0.0000    
       ELAPSED WALLCLOCK TIME (SEC) =          0
 

 ***WARNING: THE SYSTEM MATRIX HAS 547 NEGATIVE EIGENVALUES.
             EXPLANATIONS ARE SUGGESTED AFTER THE FIRST OCCURRENCE OF THIS MESSAGE.

               CONVERGENCE CHECKS FOR EQUILIBRIUM ITERATION     1


 AVERAGE FORCE                       1.30       TIME AVG. FORCE       0.537    
 LARGEST RESIDUAL FORCE            -5.503E-06   AT NODE        476   DOF  1
   INSTANCE: AL_ROD_QUDRACTIC-1                                                              
 LARGEST INCREMENT OF DISP.        -1.353E-08   AT NODE        477   DOF  1
   INSTANCE: AL_ROD_QUDRACTIC-1                                                              
 LARGEST CORRECTION TO DISP.        5.404E-15   AT NODE        476   DOF  1
   INSTANCE: AL_ROD_QUDRACTIC-1                                                              
          THE FORCE     EQUILIBRIUM EQUATIONS HAVE CONVERGED

 ITERATION SUMMARY FOR THE INCREMENT:   1 TOTAL ITERATIONS, OF WHICH
   0 ARE SEVERE DISCONTINUITY ITERATIONS AND  1 ARE EQUILIBRIUM ITERATIONS.

 TIME INCREMENT COMPLETED  1.000E-02,  FRACTION OF STEP COMPLETED  0.152    
 STEP TIME COMPLETED       0.152    ,  TOTAL TIME COMPLETED        0.152    


  INCREMENT    21 STARTS. ATTEMPT NUMBER  1, TIME INCREMENT  1.000E-02

  NUMBER OF EQUATIONS =     1906     NUMBER OF FLOATING PT. OPERATIONS =  1.35E+05

     CHECK POINT   START OF SOLVER    

     CHECK POINT  END OF SOLVER       

       ELAPSED USER TIME (SEC)      =   0.0000    
       ELAPSED SYSTEM TIME (SEC)    =  0.10000    
       ELAPSED TOTAL CPU TIME (SEC) =  0.10000    
       ELAPSED WALLCLOCK TIME (SEC) =          0
 

 ***WARNING: THE SYSTEM MATRIX HAS 547 NEGATIVE EIGENVALUES.
             EXPLANATIONS ARE SUGGESTED AFTER THE FIRST OCCURRENCE OF THIS MESSAGE.

               CONVERGENCE CHECKS FOR EQUILIBRIUM ITERATION     1


 AVERAGE FORCE                       1.39       TIME AVG. FORCE       0.577    
 LARGEST RESIDUAL FORCE             5.113E-06   AT NODE        916   DOF  1
   INSTANCE: AL_ROD_QUDRACTIC-1                                                              
 LARGEST INCREMENT OF DISP.        -1.353E-08   AT NODE        477   DOF  1
   INSTANCE: AL_ROD_QUDRACTIC-1                                                              
 LARGEST CORRECTION TO DISP.        5.222E-15   AT NODE        475   DOF  1
   INSTANCE: AL_ROD_QUDRACTIC-1                                                              
          THE FORCE     EQUILIBRIUM EQUATIONS HAVE CONVERGED

 ITERATION SUMMARY FOR THE INCREMENT:   1 TOTAL ITERATIONS, OF WHICH
   0 ARE SEVERE DISCONTINUITY ITERATIONS AND  1 ARE EQUILIBRIUM ITERATIONS.

 TIME INCREMENT COMPLETED  1.000E-02,  FRACTION OF STEP COMPLETED  0.162    
 STEP TIME COMPLETED       0.162    ,  TOTAL TIME COMPLETED        0.162    


  INCREMENT    22 STARTS. ATTEMPT NUMBER  1, TIME INCREMENT  1.000E-02

  NUMBER OF EQUATIONS =     1906     NUMBER OF FLOATING PT. OPERATIONS =  1.35E+05

     CHECK POINT   START OF SOLVER    

     CHECK POINT  END OF SOLVER       

       ELAPSED USER TIME (SEC)      =   0.0000    
       ELAPSED SYSTEM TIME (SEC)    =   0.0000    
       ELAPSED TOTAL CPU TIME (SEC) =   0.0000    
       ELAPSED WALLCLOCK TIME (SEC) =          0
 

 ***WARNING: THE SYSTEM MATRIX HAS 547 NEGATIVE EIGENVALUES.
             EXPLANATIONS ARE SUGGESTED AFTER THE FIRST OCCURRENCE OF THIS MESSAGE.

               CONVERGENCE CHECKS FOR EQUILIBRIUM ITERATION     1


 AVERAGE FORCE                       1.47       TIME AVG. FORCE       0.618    
 LARGEST RESIDUAL FORCE             5.219E-06   AT NODE        949   DOF  1
   INSTANCE: AL_ROD_QUDRACTIC-1                                                              
 LARGEST INCREMENT OF DISP.        -1.353E-08   AT NODE        477   DOF  1
   INSTANCE: AL_ROD_QUDRACTIC-1                                                              
 LARGEST CORRECTION TO DISP.        4.515E-15   AT NODE        476   DOF  1
   INSTANCE: AL_ROD_QUDRACTIC-1                                                              
          THE FORCE     EQUILIBRIUM EQUATIONS HAVE CONVERGED

 ITERATION SUMMARY FOR THE INCREMENT:   1 TOTAL ITERATIONS, OF WHICH
   0 ARE SEVERE DISCONTINUITY ITERATIONS AND  1 ARE EQUILIBRIUM ITERATIONS.

 TIME INCREMENT COMPLETED  1.000E-02,  FRACTION OF STEP COMPLETED  0.172    
 STEP TIME COMPLETED       0.172    ,  TOTAL TIME COMPLETED        0.172    


  INCREMENT    23 STARTS. ATTEMPT NUMBER  1, TIME INCREMENT  1.000E-02

  NUMBER OF EQUATIONS =     1906     NUMBER OF FLOATING PT. OPERATIONS =  1.35E+05

     CHECK POINT   START OF SOLVER    

     CHECK POINT  END OF SOLVER       

       ELAPSED USER TIME (SEC)      =  0.10000    
       ELAPSED SYSTEM TIME (SEC)    =   0.0000    
       ELAPSED TOTAL CPU TIME (SEC) =  0.10000    
       ELAPSED WALLCLOCK TIME (SEC) =          0
 

 ***WARNING: THE SYSTEM MATRIX HAS 547 NEGATIVE EIGENVALUES.
             EXPLANATIONS ARE SUGGESTED AFTER THE FIRST OCCURRENCE OF THIS MESSAGE.

               CONVERGENCE CHECKS FOR EQUILIBRIUM ITERATION     1


 AVERAGE FORCE                       1.56       TIME AVG. FORCE       0.659    
 LARGEST RESIDUAL FORCE             4.080E-06   AT NODE        458   DOF  1
   INSTANCE: AL_ROD_QUDRACTIC-1                                                              
 LARGEST INCREMENT OF DISP.        -1.353E-08   AT NODE        477   DOF  1
   INSTANCE: AL_ROD_QUDRACTIC-1                                                              
 LARGEST CORRECTION TO DISP.        5.616E-15   AT NODE        477   DOF  1
   INSTANCE: AL_ROD_QUDRACTIC-1                                                              
          THE FORCE     EQUILIBRIUM EQUATIONS HAVE CONVERGED

 ITERATION SUMMARY FOR THE INCREMENT:   1 TOTAL ITERATIONS, OF WHICH
   0 ARE SEVERE DISCONTINUITY ITERATIONS AND  1 ARE EQUILIBRIUM ITERATIONS.

 TIME INCREMENT COMPLETED  1.000E-02,  FRACTION OF STEP COMPLETED  0.182    
 STEP TIME COMPLETED       0.182    ,  TOTAL TIME COMPLETED        0.182    


  INCREMENT    24 STARTS. ATTEMPT NUMBER  1, TIME INCREMENT  1.000E-02

  NUMBER OF EQUATIONS =     1906     NUMBER OF FLOATING PT. OPERATIONS =  1.35E+05

     CHECK POINT   START OF SOLVER    

     CHECK POINT  END OF SOLVER       

       ELAPSED USER TIME (SEC)      =   0.0000    
       ELAPSED SYSTEM TIME (SEC)    =   0.0000    
       ELAPSED TOTAL CPU TIME (SEC) =   0.0000    
       ELAPSED WALLCLOCK TIME (SEC) =          0
 

 ***WARNING: THE SYSTEM MATRIX HAS 547 NEGATIVE EIGENVALUES.
             EXPLANATIONS ARE SUGGESTED AFTER THE FIRST OCCURRENCE OF THIS MESSAGE.

               CONVERGENCE CHECKS FOR EQUILIBRIUM ITERATION     1


 AVERAGE FORCE                       1.65       TIME AVG. FORCE       0.700    
 LARGEST RESIDUAL FORCE             4.030E-06   AT NODE        258   DOF  1
   INSTANCE: AL_ROD_QUDRACTIC-1                                                              
 LARGEST INCREMENT OF DISP.        -1.353E-08   AT NODE        477   DOF  1
   INSTANCE: AL_ROD_QUDRACTIC-1                                                              
 LARGEST CORRECTION TO DISP.        3.408E-15   AT NODE        806   DOF  1
   INSTANCE: AL_ROD_QUDRACTIC-1                                                              
          THE FORCE     EQUILIBRIUM EQUATIONS HAVE CONVERGED

 ITERATION SUMMARY FOR THE INCREMENT:   1 TOTAL ITERATIONS, OF WHICH
   0 ARE SEVERE DISCONTINUITY ITERATIONS AND  1 ARE EQUILIBRIUM ITERATIONS.

 TIME INCREMENT COMPLETED  1.000E-02,  FRACTION OF STEP COMPLETED  0.192    
 STEP TIME COMPLETED       0.192    ,  TOTAL TIME COMPLETED        0.192    


  INCREMENT    25 STARTS. ATTEMPT NUMBER  1, TIME INCREMENT  1.000E-02

  NUMBER OF EQUATIONS =     1906     NUMBER OF FLOATING PT. OPERATIONS =  1.35E+05

     CHECK POINT   START OF SOLVER    

     CHECK POINT  END OF SOLVER       

       ELAPSED USER TIME (SEC)      =  0.10000    
       ELAPSED SYSTEM TIME (SEC)    =   0.0000    
       ELAPSED TOTAL CPU TIME (SEC) =  0.10000    
       ELAPSED WALLCLOCK TIME (SEC) =          0
 

 ***WARNING: THE SYSTEM MATRIX HAS 547 NEGATIVE EIGENVALUES.
             EXPLANATIONS ARE SUGGESTED AFTER THE FIRST OCCURRENCE OF THIS MESSAGE.

               CONVERGENCE CHECKS FOR EQUILIBRIUM ITERATION     1


 AVERAGE FORCE                       1.73       TIME AVG. FORCE       0.741    
 LARGEST RESIDUAL FORCE            -4.028E-06   AT NODE        471   DOF  1
   INSTANCE: AL_ROD_QUDRACTIC-1                                                              
 LARGEST INCREMENT OF DISP.        -1.353E-08   AT NODE        477   DOF  1
   INSTANCE: AL_ROD_QUDRACTIC-1                                                              
 LARGEST CORRECTION TO DISP.        5.529E-15   AT NODE        476   DOF  1
   INSTANCE: AL_ROD_QUDRACTIC-1                                                              
          THE FORCE     EQUILIBRIUM EQUATIONS HAVE CONVERGED

 ITERATION SUMMARY FOR THE INCREMENT:   1 TOTAL ITERATIONS, OF WHICH
   0 ARE SEVERE DISCONTINUITY ITERATIONS AND  1 ARE EQUILIBRIUM ITERATIONS.

 TIME INCREMENT COMPLETED  1.000E-02,  FRACTION OF STEP COMPLETED  0.202    
 STEP TIME COMPLETED       0.202    ,  TOTAL TIME COMPLETED        0.202    


  INCREMENT    26 STARTS. ATTEMPT NUMBER  1, TIME INCREMENT  1.000E-02

  NUMBER OF EQUATIONS =     1906     NUMBER OF FLOATING PT. OPERATIONS =  1.35E+05

     CHECK POINT   START OF SOLVER    

     CHECK POINT  END OF SOLVER       

       ELAPSED USER TIME (SEC)      =   0.0000    
       ELAPSED SYSTEM TIME (SEC)    =   0.0000    
       ELAPSED TOTAL CPU TIME (SEC) =   0.0000    
       ELAPSED WALLCLOCK TIME (SEC) =          0
 

 ***WARNING: THE SYSTEM MATRIX HAS 547 NEGATIVE EIGENVALUES.
             EXPLANATIONS ARE SUGGESTED AFTER THE FIRST OCCURRENCE OF THIS MESSAGE.

               CONVERGENCE CHECKS FOR EQUILIBRIUM ITERATION     1


 AVERAGE FORCE                       1.82       TIME AVG. FORCE       0.783    
 LARGEST RESIDUAL FORCE            -3.825E-06   AT NODE        930   DOF  1
   INSTANCE: AL_ROD_QUDRACTIC-1                                                              
 LARGEST INCREMENT OF DISP.        -1.353E-08   AT NODE        477   DOF  1
   INSTANCE: AL_ROD_QUDRACTIC-1                                                              
 LARGEST CORRECTION TO DISP.        5.154E-15   AT NODE        477   DOF  1
   INSTANCE: AL_ROD_QUDRACTIC-1                                                              
          THE FORCE     EQUILIBRIUM EQUATIONS HAVE CONVERGED

 ITERATION SUMMARY FOR THE INCREMENT:   1 TOTAL ITERATIONS, OF WHICH
   0 ARE SEVERE DISCONTINUITY ITERATIONS AND  1 ARE EQUILIBRIUM ITERATIONS.

 TIME INCREMENT COMPLETED  1.000E-02,  FRACTION OF STEP COMPLETED  0.212    
 STEP TIME COMPLETED       0.212    ,  TOTAL TIME COMPLETED        0.212    


  INCREMENT    27 STARTS. ATTEMPT NUMBER  1, TIME INCREMENT  1.000E-02

  NUMBER OF EQUATIONS =     1906     NUMBER OF FLOATING PT. OPERATIONS =  1.35E+05

     CHECK POINT   START OF SOLVER    

     CHECK POINT  END OF SOLVER       

       ELAPSED USER TIME (SEC)      =  0.10000    
       ELAPSED SYSTEM TIME (SEC)    =   0.0000    
       ELAPSED TOTAL CPU TIME (SEC) =  0.10000    
       ELAPSED WALLCLOCK TIME (SEC) =          0
 

 ***WARNING: THE SYSTEM MATRIX HAS 547 NEGATIVE EIGENVALUES.
             EXPLANATIONS ARE SUGGESTED AFTER THE FIRST OCCURRENCE OF THIS MESSAGE.

               CONVERGENCE CHECKS FOR EQUILIBRIUM ITERATION     1


 AVERAGE FORCE                       1.90       TIME AVG. FORCE       0.824    
 LARGEST RESIDUAL FORCE            -4.862E-06   AT NODE        466   DOF  1
   INSTANCE: AL_ROD_QUDRACTIC-1                                                              
 LARGEST INCREMENT OF DISP.        -1.353E-08   AT NODE        477   DOF  1
   INSTANCE: AL_ROD_QUDRACTIC-1                                                              
 LARGEST CORRECTION TO DISP.        4.482E-15   AT NODE        953   DOF  1
   INSTANCE: AL_ROD_QUDRACTIC-1                                                              
          THE FORCE     EQUILIBRIUM EQUATIONS HAVE CONVERGED

 ITERATION SUMMARY FOR THE INCREMENT:   1 TOTAL ITERATIONS, OF WHICH
   0 ARE SEVERE DISCONTINUITY ITERATIONS AND  1 ARE EQUILIBRIUM ITERATIONS.

 TIME INCREMENT COMPLETED  1.000E-02,  FRACTION OF STEP COMPLETED  0.222    
 STEP TIME COMPLETED       0.222    ,  TOTAL TIME COMPLETED        0.222    


  INCREMENT    28 STARTS. ATTEMPT NUMBER  1, TIME INCREMENT  1.000E-02

  NUMBER OF EQUATIONS =     1906     NUMBER OF FLOATING PT. OPERATIONS =  1.35E+05

     CHECK POINT   START OF SOLVER    

     CHECK POINT  END OF SOLVER       

       ELAPSED USER TIME (SEC)      =   0.0000    
       ELAPSED SYSTEM TIME (SEC)    =   0.0000    
       ELAPSED TOTAL CPU TIME (SEC) =   0.0000    
       ELAPSED WALLCLOCK TIME (SEC) =          0
 

 ***WARNING: THE SYSTEM MATRIX HAS 547 NEGATIVE EIGENVALUES.
             EXPLANATIONS ARE SUGGESTED AFTER THE FIRST OCCURRENCE OF THIS MESSAGE.

               CONVERGENCE CHECKS FOR EQUILIBRIUM ITERATION     1


 AVERAGE FORCE                       1.99       TIME AVG. FORCE       0.866    
 LARGEST RESIDUAL FORCE            -4.580E-06   AT NODE        458   DOF  1
   INSTANCE: AL_ROD_QUDRACTIC-1                                                              
 LARGEST INCREMENT OF DISP.        -1.353E-08   AT NODE        477   DOF  1
   INSTANCE: AL_ROD_QUDRACTIC-1                                                              
 LARGEST CORRECTION TO DISP.        4.492E-15   AT NODE        394   DOF  1
   INSTANCE: AL_ROD_QUDRACTIC-1                                                              
          THE FORCE     EQUILIBRIUM EQUATIONS HAVE CONVERGED

 ITERATION SUMMARY FOR THE INCREMENT:   1 TOTAL ITERATIONS, OF WHICH
   0 ARE SEVERE DISCONTINUITY ITERATIONS AND  1 ARE EQUILIBRIUM ITERATIONS.

 TIME INCREMENT COMPLETED  1.000E-02,  FRACTION OF STEP COMPLETED  0.232    
 STEP TIME COMPLETED       0.232    ,  TOTAL TIME COMPLETED        0.232    


  INCREMENT    29 STARTS. ATTEMPT NUMBER  1, TIME INCREMENT  1.000E-02

  NUMBER OF EQUATIONS =     1906     NUMBER OF FLOATING PT. OPERATIONS =  1.35E+05

     CHECK POINT   START OF SOLVER    

     CHECK POINT  END OF SOLVER       

       ELAPSED USER TIME (SEC)      =   0.0000    
       ELAPSED SYSTEM TIME (SEC)    =   0.0000    
       ELAPSED TOTAL CPU TIME (SEC) =   0.0000    
       ELAPSED WALLCLOCK TIME (SEC) =          0
 

 ***WARNING: THE SYSTEM MATRIX HAS 547 NEGATIVE EIGENVALUES.
             EXPLANATIONS ARE SUGGESTED AFTER THE FIRST OCCURRENCE OF THIS MESSAGE.

               CONVERGENCE CHECKS FOR EQUILIBRIUM ITERATION     1


 AVERAGE FORCE                       2.08       TIME AVG. FORCE       0.908    
 LARGEST RESIDUAL FORCE            -3.362E-06   AT NODE        899   DOF  1
   INSTANCE: AL_ROD_QUDRACTIC-1                                                              
 LARGEST INCREMENT OF DISP.        -1.353E-08   AT NODE        477   DOF  1
   INSTANCE: AL_ROD_QUDRACTIC-1                                                              
 LARGEST CORRECTION TO DISP.        4.173E-15   AT NODE        813   DOF  1
   INSTANCE: AL_ROD_QUDRACTIC-1                                                              
          THE FORCE     EQUILIBRIUM EQUATIONS HAVE CONVERGED

 ITERATION SUMMARY FOR THE INCREMENT:   1 TOTAL ITERATIONS, OF WHICH
   0 ARE SEVERE DISCONTINUITY ITERATIONS AND  1 ARE EQUILIBRIUM ITERATIONS.

 TIME INCREMENT COMPLETED  1.000E-02,  FRACTION OF STEP COMPLETED  0.242    
 STEP TIME COMPLETED       0.242    ,  TOTAL TIME COMPLETED        0.242    


  INCREMENT    30 STARTS. ATTEMPT NUMBER  1, TIME INCREMENT  1.000E-02

  NUMBER OF EQUATIONS =     1906     NUMBER OF FLOATING PT. OPERATIONS =  1.35E+05

     CHECK POINT   START OF SOLVER    

     CHECK POINT  END OF SOLVER       

       ELAPSED USER TIME (SEC)      =   0.0000    
       ELAPSED SYSTEM TIME (SEC)    =   0.0000    
       ELAPSED TOTAL CPU TIME (SEC) =   0.0000    
       ELAPSED WALLCLOCK TIME (SEC) =          0
 

 ***WARNING: THE SYSTEM MATRIX HAS 547 NEGATIVE EIGENVALUES.
             EXPLANATIONS ARE SUGGESTED AFTER THE FIRST OCCURRENCE OF THIS MESSAGE.

               CONVERGENCE CHECKS FOR EQUILIBRIUM ITERATION     1


 AVERAGE FORCE                       2.16       TIME AVG. FORCE       0.949    
 LARGEST RESIDUAL FORCE            -5.072E-06   AT NODE        953   DOF  1
   INSTANCE: AL_ROD_QUDRACTIC-1                                                              
 LARGEST INCREMENT OF DISP.        -1.353E-08   AT NODE        477   DOF  1
   INSTANCE: AL_ROD_QUDRACTIC-1                                                              
 LARGEST CORRECTION TO DISP.        6.173E-15   AT NODE        477   DOF  1
   INSTANCE: AL_ROD_QUDRACTIC-1                                                              
          THE FORCE     EQUILIBRIUM EQUATIONS HAVE CONVERGED

 ITERATION SUMMARY FOR THE INCREMENT:   1 TOTAL ITERATIONS, OF WHICH
   0 ARE SEVERE DISCONTINUITY ITERATIONS AND  1 ARE EQUILIBRIUM ITERATIONS.

 TIME INCREMENT COMPLETED  1.000E-02,  FRACTION OF STEP COMPLETED  0.252    
 STEP TIME COMPLETED       0.252    ,  TOTAL TIME COMPLETED        0.252    


  INCREMENT    31 STARTS. ATTEMPT NUMBER  1, TIME INCREMENT  1.000E-02

  NUMBER OF EQUATIONS =     1906     NUMBER OF FLOATING PT. OPERATIONS =  1.35E+05

     CHECK POINT   START OF SOLVER    

     CHECK POINT  END OF SOLVER       

       ELAPSED USER TIME (SEC)      =   0.0000    
       ELAPSED SYSTEM TIME (SEC)    =   0.0000    
       ELAPSED TOTAL CPU TIME (SEC) =   0.0000    
       ELAPSED WALLCLOCK TIME (SEC) =          0
 

 ***WARNING: THE SYSTEM MATRIX HAS 547 NEGATIVE EIGENVALUES.
             EXPLANATIONS ARE SUGGESTED AFTER THE FIRST OCCURRENCE OF THIS MESSAGE.

               CONVERGENCE CHECKS FOR EQUILIBRIUM ITERATION     1


 AVERAGE FORCE                       2.25       TIME AVG. FORCE       0.991    
 LARGEST RESIDUAL FORCE            -5.063E-06   AT NODE        908   DOF  1
   INSTANCE: AL_ROD_QUDRACTIC-1                                                              
 LARGEST INCREMENT OF DISP.        -1.353E-08   AT NODE        477   DOF  1
   INSTANCE: AL_ROD_QUDRACTIC-1                                                              
 LARGEST CORRECTION TO DISP.        3.988E-15   AT NODE        476   DOF  1
   INSTANCE: AL_ROD_QUDRACTIC-1                                                              
          THE FORCE     EQUILIBRIUM EQUATIONS HAVE CONVERGED

 ITERATION SUMMARY FOR THE INCREMENT:   1 TOTAL ITERATIONS, OF WHICH
   0 ARE SEVERE DISCONTINUITY ITERATIONS AND  1 ARE EQUILIBRIUM ITERATIONS.

 TIME INCREMENT COMPLETED  1.000E-02,  FRACTION OF STEP COMPLETED  0.262    
 STEP TIME COMPLETED       0.262    ,  TOTAL TIME COMPLETED        0.262    


  INCREMENT    32 STARTS. ATTEMPT NUMBER  1, TIME INCREMENT  1.000E-02

  NUMBER OF EQUATIONS =     1906     NUMBER OF FLOATING PT. OPERATIONS =  1.35E+05

     CHECK POINT   START OF SOLVER    

     CHECK POINT  END OF SOLVER       

       ELAPSED USER TIME (SEC)      =   0.0000    
       ELAPSED SYSTEM TIME (SEC)    =   0.0000    
       ELAPSED TOTAL CPU TIME (SEC) =   0.0000    
       ELAPSED WALLCLOCK TIME (SEC) =          1
 

 ***WARNING: THE SYSTEM MATRIX HAS 547 NEGATIVE EIGENVALUES.
             EXPLANATIONS ARE SUGGESTED AFTER THE FIRST OCCURRENCE OF THIS MESSAGE.

               CONVERGENCE CHECKS FOR EQUILIBRIUM ITERATION     1


 AVERAGE FORCE                       2.33       TIME AVG. FORCE        1.03    
 LARGEST RESIDUAL FORCE            -5.109E-06   AT NODE        931   DOF  1
   INSTANCE: AL_ROD_QUDRACTIC-1                                                              
 LARGEST INCREMENT OF DISP.        -1.353E-08   AT NODE        477   DOF  1
   INSTANCE: AL_ROD_QUDRACTIC-1                                                              
 LARGEST CORRECTION TO DISP.        4.723E-15   AT NODE        477   DOF  1
   INSTANCE: AL_ROD_QUDRACTIC-1                                                              
          THE FORCE     EQUILIBRIUM EQUATIONS HAVE CONVERGED

 ITERATION SUMMARY FOR THE INCREMENT:   1 TOTAL ITERATIONS, OF WHICH
   0 ARE SEVERE DISCONTINUITY ITERATIONS AND  1 ARE EQUILIBRIUM ITERATIONS.

 TIME INCREMENT COMPLETED  1.000E-02,  FRACTION OF STEP COMPLETED  0.272    
 STEP TIME COMPLETED       0.272    ,  TOTAL TIME COMPLETED        0.272    


  INCREMENT    33 STARTS. ATTEMPT NUMBER  1, TIME INCREMENT  1.000E-02

  NUMBER OF EQUATIONS =     1906     NUMBER OF FLOATING PT. OPERATIONS =  1.35E+05

     CHECK POINT   START OF SOLVER    

     CHECK POINT  END OF SOLVER       

       ELAPSED USER TIME (SEC)      =   0.0000    
       ELAPSED SYSTEM TIME (SEC)    =   0.0000    
       ELAPSED TOTAL CPU TIME (SEC) =   0.0000    
       ELAPSED WALLCLOCK TIME (SEC) =          0
 

 ***WARNING: THE SYSTEM MATRIX HAS 547 NEGATIVE EIGENVALUES.
             EXPLANATIONS ARE SUGGESTED AFTER THE FIRST OCCURRENCE OF THIS MESSAGE.

               CONVERGENCE CHECKS FOR EQUILIBRIUM ITERATION     1


 AVERAGE FORCE                       2.42       TIME AVG. FORCE        1.08    
 LARGEST RESIDUAL FORCE            -4.187E-06   AT NODE        947   DOF  1
   INSTANCE: AL_ROD_QUDRACTIC-1                                                              
 LARGEST INCREMENT OF DISP.        -1.353E-08   AT NODE        477   DOF  1
   INSTANCE: AL_ROD_QUDRACTIC-1                                                              
 LARGEST CORRECTION TO DISP.        4.509E-15   AT NODE        476   DOF  1
   INSTANCE: AL_ROD_QUDRACTIC-1                                                              
          THE FORCE     EQUILIBRIUM EQUATIONS HAVE CONVERGED

 ITERATION SUMMARY FOR THE INCREMENT:   1 TOTAL ITERATIONS, OF WHICH
   0 ARE SEVERE DISCONTINUITY ITERATIONS AND  1 ARE EQUILIBRIUM ITERATIONS.

 TIME INCREMENT COMPLETED  1.000E-02,  FRACTION OF STEP COMPLETED  0.282    
 STEP TIME COMPLETED       0.282    ,  TOTAL TIME COMPLETED        0.282    


  INCREMENT    34 STARTS. ATTEMPT NUMBER  1, TIME INCREMENT  1.000E-02

  NUMBER OF EQUATIONS =     1906     NUMBER OF FLOATING PT. OPERATIONS =  1.35E+05

     CHECK POINT   START OF SOLVER    

     CHECK POINT  END OF SOLVER       

       ELAPSED USER TIME (SEC)      =   0.0000    
       ELAPSED SYSTEM TIME (SEC)    =   0.0000    
       ELAPSED TOTAL CPU TIME (SEC) =   0.0000    
       ELAPSED WALLCLOCK TIME (SEC) =          0
 

 ***WARNING: THE SYSTEM MATRIX HAS 547 NEGATIVE EIGENVALUES.
             EXPLANATIONS ARE SUGGESTED AFTER THE FIRST OCCURRENCE OF THIS MESSAGE.

               CONVERGENCE CHECKS FOR EQUILIBRIUM ITERATION     1


 AVERAGE FORCE                       2.51       TIME AVG. FORCE        1.12    
 LARGEST RESIDUAL FORCE            -5.767E-06   AT NODE        940   DOF  1
   INSTANCE: AL_ROD_QUDRACTIC-1                                                              
 LARGEST INCREMENT OF DISP.        -1.353E-08   AT NODE        477   DOF  1
   INSTANCE: AL_ROD_QUDRACTIC-1                                                              
 LARGEST CORRECTION TO DISP.        5.081E-15   AT NODE        477   DOF  1
   INSTANCE: AL_ROD_QUDRACTIC-1                                                              
          THE FORCE     EQUILIBRIUM EQUATIONS HAVE CONVERGED

 ITERATION SUMMARY FOR THE INCREMENT:   1 TOTAL ITERATIONS, OF WHICH
   0 ARE SEVERE DISCONTINUITY ITERATIONS AND  1 ARE EQUILIBRIUM ITERATIONS.

 TIME INCREMENT COMPLETED  1.000E-02,  FRACTION OF STEP COMPLETED  0.292    
 STEP TIME COMPLETED       0.292    ,  TOTAL TIME COMPLETED        0.292    


  INCREMENT    35 STARTS. ATTEMPT NUMBER  1, TIME INCREMENT  1.000E-02

  NUMBER OF EQUATIONS =     1906     NUMBER OF FLOATING PT. OPERATIONS =  1.35E+05

     CHECK POINT   START OF SOLVER    

     CHECK POINT  END OF SOLVER       

       ELAPSED USER TIME (SEC)      =   0.0000    
       ELAPSED SYSTEM TIME (SEC)    =   0.0000    
       ELAPSED TOTAL CPU TIME (SEC) =   0.0000    
       ELAPSED WALLCLOCK TIME (SEC) =          0
 

 ***WARNING: THE SYSTEM MATRIX HAS 547 NEGATIVE EIGENVALUES.
             EXPLANATIONS ARE SUGGESTED AFTER THE FIRST OCCURRENCE OF THIS MESSAGE.

               CONVERGENCE CHECKS FOR EQUILIBRIUM ITERATION     1


 AVERAGE FORCE                       2.59       TIME AVG. FORCE        1.16    
 LARGEST RESIDUAL FORCE            -5.135E-06   AT NODE        950   DOF  1
   INSTANCE: AL_ROD_QUDRACTIC-1                                                              
 LARGEST INCREMENT OF DISP.        -1.353E-08   AT NODE        477   DOF  1
   INSTANCE: AL_ROD_QUDRACTIC-1                                                              
 LARGEST CORRECTION TO DISP.        5.346E-15   AT NODE        477   DOF  1
   INSTANCE: AL_ROD_QUDRACTIC-1                                                              
          THE FORCE     EQUILIBRIUM EQUATIONS HAVE CONVERGED

 ITERATION SUMMARY FOR THE INCREMENT:   1 TOTAL ITERATIONS, OF WHICH
   0 ARE SEVERE DISCONTINUITY ITERATIONS AND  1 ARE EQUILIBRIUM ITERATIONS.

 TIME INCREMENT COMPLETED  1.000E-02,  FRACTION OF STEP COMPLETED  0.302    
 STEP TIME COMPLETED       0.302    ,  TOTAL TIME COMPLETED        0.302    


  INCREMENT    36 STARTS. ATTEMPT NUMBER  1, TIME INCREMENT  1.000E-02

  NUMBER OF EQUATIONS =     1906     NUMBER OF FLOATING PT. OPERATIONS =  1.35E+05

     CHECK POINT   START OF SOLVER    

     CHECK POINT  END OF SOLVER       

       ELAPSED USER TIME (SEC)      =   0.0000    
       ELAPSED SYSTEM TIME (SEC)    =   0.0000    
       ELAPSED TOTAL CPU TIME (SEC) =   0.0000    
       ELAPSED WALLCLOCK TIME (SEC) =          0
 

 ***WARNING: THE SYSTEM MATRIX HAS 547 NEGATIVE EIGENVALUES.
             EXPLANATIONS ARE SUGGESTED AFTER THE FIRST OCCURRENCE OF THIS MESSAGE.

               CONVERGENCE CHECKS FOR EQUILIBRIUM ITERATION     1


 AVERAGE FORCE                       2.68       TIME AVG. FORCE        1.20    
 LARGEST RESIDUAL FORCE             4.739E-06   AT NODE        911   DOF  1
   INSTANCE: AL_ROD_QUDRACTIC-1                                                              
 LARGEST INCREMENT OF DISP.        -1.353E-08   AT NODE        477   DOF  1
   INSTANCE: AL_ROD_QUDRACTIC-1                                                              
 LARGEST CORRECTION TO DISP.        4.099E-15   AT NODE        318   DOF  1
   INSTANCE: AL_ROD_QUDRACTIC-1                                                              
          THE FORCE     EQUILIBRIUM EQUATIONS HAVE CONVERGED

 ITERATION SUMMARY FOR THE INCREMENT:   1 TOTAL ITERATIONS, OF WHICH
   0 ARE SEVERE DISCONTINUITY ITERATIONS AND  1 ARE EQUILIBRIUM ITERATIONS.

 TIME INCREMENT COMPLETED  1.000E-02,  FRACTION OF STEP COMPLETED  0.312    
 STEP TIME COMPLETED       0.312    ,  TOTAL TIME COMPLETED        0.312    


  INCREMENT    37 STARTS. ATTEMPT NUMBER  1, TIME INCREMENT  1.000E-02

  NUMBER OF EQUATIONS =     1906     NUMBER OF FLOATING PT. OPERATIONS =  1.35E+05

     CHECK POINT   START OF SOLVER    

     CHECK POINT  END OF SOLVER       

       ELAPSED USER TIME (SEC)      =   0.0000    
       ELAPSED SYSTEM TIME (SEC)    =   0.0000    
       ELAPSED TOTAL CPU TIME (SEC) =   0.0000    
       ELAPSED WALLCLOCK TIME (SEC) =          0
 

 ***WARNING: THE SYSTEM MATRIX HAS 547 NEGATIVE EIGENVALUES.
             EXPLANATIONS ARE SUGGESTED AFTER THE FIRST OCCURRENCE OF THIS MESSAGE.

               CONVERGENCE CHECKS FOR EQUILIBRIUM ITERATION     1


 AVERAGE FORCE                       2.76       TIME AVG. FORCE        1.24    
 LARGEST RESIDUAL FORCE             5.714E-06   AT NODE        473   DOF  1
   INSTANCE: AL_ROD_QUDRACTIC-1                                                              
 LARGEST INCREMENT OF DISP.        -1.353E-08   AT NODE        477   DOF  1
   INSTANCE: AL_ROD_QUDRACTIC-1                                                              
 LARGEST CORRECTION TO DISP.        5.137E-15   AT NODE        950   DOF  1
   INSTANCE: AL_ROD_QUDRACTIC-1                                                              
          THE FORCE     EQUILIBRIUM EQUATIONS HAVE CONVERGED

 ITERATION SUMMARY FOR THE INCREMENT:   1 TOTAL ITERATIONS, OF WHICH
   0 ARE SEVERE DISCONTINUITY ITERATIONS AND  1 ARE EQUILIBRIUM ITERATIONS.

 TIME INCREMENT COMPLETED  1.000E-02,  FRACTION OF STEP COMPLETED  0.322    
 STEP TIME COMPLETED       0.322    ,  TOTAL TIME COMPLETED        0.322    


  INCREMENT    38 STARTS. ATTEMPT NUMBER  1, TIME INCREMENT  1.000E-02

  NUMBER OF EQUATIONS =     1906     NUMBER OF FLOATING PT. OPERATIONS =  1.35E+05

     CHECK POINT   START OF SOLVER    

     CHECK POINT  END OF SOLVER       

       ELAPSED USER TIME (SEC)      =   0.0000    
       ELAPSED SYSTEM TIME (SEC)    =   0.0000    
       ELAPSED TOTAL CPU TIME (SEC) =   0.0000    
       ELAPSED WALLCLOCK TIME (SEC) =          0
 

 ***WARNING: THE SYSTEM MATRIX HAS 547 NEGATIVE EIGENVALUES.
             EXPLANATIONS ARE SUGGESTED AFTER THE FIRST OCCURRENCE OF THIS MESSAGE.

               CONVERGENCE CHECKS FOR EQUILIBRIUM ITERATION     1


 AVERAGE FORCE                       2.85       TIME AVG. FORCE        1.29    
 LARGEST RESIDUAL FORCE             5.343E-06   AT NODE        943   DOF  1
   INSTANCE: AL_ROD_QUDRACTIC-1                                                              
 LARGEST INCREMENT OF DISP.        -1.353E-08   AT NODE        477   DOF  1
   INSTANCE: AL_ROD_QUDRACTIC-1                                                              
 LARGEST CORRECTION TO DISP.        4.855E-15   AT NODE        477   DOF  1
   INSTANCE: AL_ROD_QUDRACTIC-1                                                              
          THE FORCE     EQUILIBRIUM EQUATIONS HAVE CONVERGED

 ITERATION SUMMARY FOR THE INCREMENT:   1 TOTAL ITERATIONS, OF WHICH
   0 ARE SEVERE DISCONTINUITY ITERATIONS AND  1 ARE EQUILIBRIUM ITERATIONS.

 TIME INCREMENT COMPLETED  1.000E-02,  FRACTION OF STEP COMPLETED  0.332    
 STEP TIME COMPLETED       0.332    ,  TOTAL TIME COMPLETED        0.332    


  INCREMENT    39 STARTS. ATTEMPT NUMBER  1, TIME INCREMENT  1.000E-02

  NUMBER OF EQUATIONS =     1906     NUMBER OF FLOATING PT. OPERATIONS =  1.35E+05

     CHECK POINT   START OF SOLVER    

     CHECK POINT  END OF SOLVER       

       ELAPSED USER TIME (SEC)      =   0.0000    
       ELAPSED SYSTEM TIME (SEC)    =   0.0000    
       ELAPSED TOTAL CPU TIME (SEC) =   0.0000    
       ELAPSED WALLCLOCK TIME (SEC) =          0
 

 ***WARNING: THE SYSTEM MATRIX HAS 547 NEGATIVE EIGENVALUES.
             EXPLANATIONS ARE SUGGESTED AFTER THE FIRST OCCURRENCE OF THIS MESSAGE.

               CONVERGENCE CHECKS FOR EQUILIBRIUM ITERATION     1


 AVERAGE FORCE                       2.93       TIME AVG. FORCE        1.33    
 LARGEST RESIDUAL FORCE             4.810E-06   AT NODE        460   DOF  1
   INSTANCE: AL_ROD_QUDRACTIC-1                                                              
 LARGEST INCREMENT OF DISP.        -1.353E-08   AT NODE        477   DOF  1
   INSTANCE: AL_ROD_QUDRACTIC-1                                                              
 LARGEST CORRECTION TO DISP.        4.548E-15   AT NODE        328   DOF  1
   INSTANCE: AL_ROD_QUDRACTIC-1                                                              
          THE FORCE     EQUILIBRIUM EQUATIONS HAVE CONVERGED

 ITERATION SUMMARY FOR THE INCREMENT:   1 TOTAL ITERATIONS, OF WHICH
   0 ARE SEVERE DISCONTINUITY ITERATIONS AND  1 ARE EQUILIBRIUM ITERATIONS.

 TIME INCREMENT COMPLETED  1.000E-02,  FRACTION OF STEP COMPLETED  0.342    
 STEP TIME COMPLETED       0.342    ,  TOTAL TIME COMPLETED        0.342    


  INCREMENT    40 STARTS. ATTEMPT NUMBER  1, TIME INCREMENT  1.000E-02

  NUMBER OF EQUATIONS =     1906     NUMBER OF FLOATING PT. OPERATIONS =  1.35E+05

     CHECK POINT   START OF SOLVER    

     CHECK POINT  END OF SOLVER       

       ELAPSED USER TIME (SEC)      =   0.0000    
       ELAPSED SYSTEM TIME (SEC)    =   0.0000    
       ELAPSED TOTAL CPU TIME (SEC) =   0.0000    
       ELAPSED WALLCLOCK TIME (SEC) =          0
 

 ***WARNING: THE SYSTEM MATRIX HAS 547 NEGATIVE EIGENVALUES.
             EXPLANATIONS ARE SUGGESTED AFTER THE FIRST OCCURRENCE OF THIS MESSAGE.

               CONVERGENCE CHECKS FOR EQUILIBRIUM ITERATION     1


 AVERAGE FORCE                       3.02       TIME AVG. FORCE        1.37    
 LARGEST RESIDUAL FORCE            -5.015E-06   AT NODE        903   DOF  1
   INSTANCE: AL_ROD_QUDRACTIC-1                                                              
 LARGEST INCREMENT OF DISP.        -1.353E-08   AT NODE        477   DOF  1
   INSTANCE: AL_ROD_QUDRACTIC-1                                                              
 LARGEST CORRECTION TO DISP.        5.734E-15   AT NODE        953   DOF  1
   INSTANCE: AL_ROD_QUDRACTIC-1                                                              
          THE FORCE     EQUILIBRIUM EQUATIONS HAVE CONVERGED

 ITERATION SUMMARY FOR THE INCREMENT:   1 TOTAL ITERATIONS, OF WHICH
   0 ARE SEVERE DISCONTINUITY ITERATIONS AND  1 ARE EQUILIBRIUM ITERATIONS.

 TIME INCREMENT COMPLETED  1.000E-02,  FRACTION OF STEP COMPLETED  0.352    
 STEP TIME COMPLETED       0.352    ,  TOTAL TIME COMPLETED        0.352    


  INCREMENT    41 STARTS. ATTEMPT NUMBER  1, TIME INCREMENT  1.000E-02

  NUMBER OF EQUATIONS =     1906     NUMBER OF FLOATING PT. OPERATIONS =  1.35E+05

     CHECK POINT   START OF SOLVER    

     CHECK POINT  END OF SOLVER       

       ELAPSED USER TIME (SEC)      =   0.0000    
       ELAPSED SYSTEM TIME (SEC)    =   0.0000    
       ELAPSED TOTAL CPU TIME (SEC) =   0.0000    
       ELAPSED WALLCLOCK TIME (SEC) =          0
 

 ***WARNING: THE SYSTEM MATRIX HAS 547 NEGATIVE EIGENVALUES.
             EXPLANATIONS ARE SUGGESTED AFTER THE FIRST OCCURRENCE OF THIS MESSAGE.

               CONVERGENCE CHECKS FOR EQUILIBRIUM ITERATION     1


 AVERAGE FORCE                       3.11       TIME AVG. FORCE        1.41    
 LARGEST RESIDUAL FORCE             4.164E-06   AT NODE        896   DOF  1
   INSTANCE: AL_ROD_QUDRACTIC-1                                                              
 LARGEST INCREMENT OF DISP.        -1.353E-08   AT NODE        477   DOF  1
   INSTANCE: AL_ROD_QUDRACTIC-1                                                              
 LARGEST CORRECTION TO DISP.        4.523E-15   AT NODE        473   DOF  1
   INSTANCE: AL_ROD_QUDRACTIC-1                                                              
          THE FORCE     EQUILIBRIUM EQUATIONS HAVE CONVERGED

 ITERATION SUMMARY FOR THE INCREMENT:   1 TOTAL ITERATIONS, OF WHICH
   0 ARE SEVERE DISCONTINUITY ITERATIONS AND  1 ARE EQUILIBRIUM ITERATIONS.

 TIME INCREMENT COMPLETED  1.000E-02,  FRACTION OF STEP COMPLETED  0.362    
 STEP TIME COMPLETED       0.362    ,  TOTAL TIME COMPLETED        0.362    


  INCREMENT    42 STARTS. ATTEMPT NUMBER  1, TIME INCREMENT  1.000E-02

  NUMBER OF EQUATIONS =     1906     NUMBER OF FLOATING PT. OPERATIONS =  1.35E+05

     CHECK POINT   START OF SOLVER    

     CHECK POINT  END OF SOLVER       

       ELAPSED USER TIME (SEC)      =   0.0000    
       ELAPSED SYSTEM TIME (SEC)    =   0.0000    
       ELAPSED TOTAL CPU TIME (SEC) =   0.0000    
       ELAPSED WALLCLOCK TIME (SEC) =          0
 

 ***WARNING: THE SYSTEM MATRIX HAS 547 NEGATIVE EIGENVALUES.
             EXPLANATIONS ARE SUGGESTED AFTER THE FIRST OCCURRENCE OF THIS MESSAGE.

               CONVERGENCE CHECKS FOR EQUILIBRIUM ITERATION     1


 AVERAGE FORCE                       3.19       TIME AVG. FORCE        1.46    
 LARGEST RESIDUAL FORCE             4.356E-06   AT NODE        921   DOF  1
   INSTANCE: AL_ROD_QUDRACTIC-1                                                              
 LARGEST INCREMENT OF DISP.        -1.353E-08   AT NODE        477   DOF  1
   INSTANCE: AL_ROD_QUDRACTIC-1                                                              
 LARGEST CORRECTION TO DISP.        4.973E-15   AT NODE        804   DOF  1
   INSTANCE: AL_ROD_QUDRACTIC-1                                                              
          THE FORCE     EQUILIBRIUM EQUATIONS HAVE CONVERGED

 ITERATION SUMMARY FOR THE INCREMENT:   1 TOTAL ITERATIONS, OF WHICH
   0 ARE SEVERE DISCONTINUITY ITERATIONS AND  1 ARE EQUILIBRIUM ITERATIONS.

 TIME INCREMENT COMPLETED  1.000E-02,  FRACTION OF STEP COMPLETED  0.372    
 STEP TIME COMPLETED       0.372    ,  TOTAL TIME COMPLETED        0.372    


  INCREMENT    43 STARTS. ATTEMPT NUMBER  1, TIME INCREMENT  1.000E-02

  NUMBER OF EQUATIONS =     1906     NUMBER OF FLOATING PT. OPERATIONS =  1.35E+05

     CHECK POINT   START OF SOLVER    

     CHECK POINT  END OF SOLVER       

       ELAPSED USER TIME (SEC)      =   0.0000    
       ELAPSED SYSTEM TIME (SEC)    =   0.0000    
       ELAPSED TOTAL CPU TIME (SEC) =   0.0000    
       ELAPSED WALLCLOCK TIME (SEC) =          0
 

 ***WARNING: THE SYSTEM MATRIX HAS 547 NEGATIVE EIGENVALUES.
             EXPLANATIONS ARE SUGGESTED AFTER THE FIRST OCCURRENCE OF THIS MESSAGE.

               CONVERGENCE CHECKS FOR EQUILIBRIUM ITERATION     1


 AVERAGE FORCE                       3.28       TIME AVG. FORCE        1.50    
 LARGEST RESIDUAL FORCE             4.726E-06   AT NODE        939   DOF  1
   INSTANCE: AL_ROD_QUDRACTIC-1                                                              
 LARGEST INCREMENT OF DISP.        -1.353E-08   AT NODE        477   DOF  1
   INSTANCE: AL_ROD_QUDRACTIC-1                                                              
 LARGEST CORRECTION TO DISP.        4.411E-15   AT NODE        953   DOF  1
   INSTANCE: AL_ROD_QUDRACTIC-1                                                              
          THE FORCE     EQUILIBRIUM EQUATIONS HAVE CONVERGED

 ITERATION SUMMARY FOR THE INCREMENT:   1 TOTAL ITERATIONS, OF WHICH
   0 ARE SEVERE DISCONTINUITY ITERATIONS AND  1 ARE EQUILIBRIUM ITERATIONS.

 TIME INCREMENT COMPLETED  1.000E-02,  FRACTION OF STEP COMPLETED  0.382    
 STEP TIME COMPLETED       0.382    ,  TOTAL TIME COMPLETED        0.382    


  INCREMENT    44 STARTS. ATTEMPT NUMBER  1, TIME INCREMENT  1.000E-02

  NUMBER OF EQUATIONS =     1906     NUMBER OF FLOATING PT. OPERATIONS =  1.35E+05

     CHECK POINT   START OF SOLVER    

     CHECK POINT  END OF SOLVER       

       ELAPSED USER TIME (SEC)      =   0.0000    
       ELAPSED SYSTEM TIME (SEC)    =   0.0000    
       ELAPSED TOTAL CPU TIME (SEC) =   0.0000    
       ELAPSED WALLCLOCK TIME (SEC) =          0
 

 ***WARNING: THE SYSTEM MATRIX HAS 547 NEGATIVE EIGENVALUES.
             EXPLANATIONS ARE SUGGESTED AFTER THE FIRST OCCURRENCE OF THIS MESSAGE.

               CONVERGENCE CHECKS FOR EQUILIBRIUM ITERATION     1


 AVERAGE FORCE                       3.36       TIME AVG. FORCE        1.54    
 LARGEST RESIDUAL FORCE            -4.011E-06   AT NODE        946   DOF  1
   INSTANCE: AL_ROD_QUDRACTIC-1                                                              
 LARGEST INCREMENT OF DISP.        -1.353E-08   AT NODE        477   DOF  1
   INSTANCE: AL_ROD_QUDRACTIC-1                                                              
 LARGEST CORRECTION TO DISP.        5.246E-15   AT NODE        477   DOF  1
   INSTANCE: AL_ROD_QUDRACTIC-1                                                              
          THE FORCE     EQUILIBRIUM EQUATIONS HAVE CONVERGED

 ITERATION SUMMARY FOR THE INCREMENT:   1 TOTAL ITERATIONS, OF WHICH
   0 ARE SEVERE DISCONTINUITY ITERATIONS AND  1 ARE EQUILIBRIUM ITERATIONS.

 TIME INCREMENT COMPLETED  1.000E-02,  FRACTION OF STEP COMPLETED  0.392    
 STEP TIME COMPLETED       0.392    ,  TOTAL TIME COMPLETED        0.392    


  INCREMENT    45 STARTS. ATTEMPT NUMBER  1, TIME INCREMENT  1.000E-02

  NUMBER OF EQUATIONS =     1906     NUMBER OF FLOATING PT. OPERATIONS =  1.35E+05

     CHECK POINT   START OF SOLVER    

     CHECK POINT  END OF SOLVER       

       ELAPSED USER TIME (SEC)      =   0.0000    
       ELAPSED SYSTEM TIME (SEC)    =   0.0000    
       ELAPSED TOTAL CPU TIME (SEC) =   0.0000    
       ELAPSED WALLCLOCK TIME (SEC) =          0
 

 ***WARNING: THE SYSTEM MATRIX HAS 547 NEGATIVE EIGENVALUES.
             EXPLANATIONS ARE SUGGESTED AFTER THE FIRST OCCURRENCE OF THIS MESSAGE.

               CONVERGENCE CHECKS FOR EQUILIBRIUM ITERATION     1


 AVERAGE FORCE                       3.45       TIME AVG. FORCE        1.58    
 LARGEST RESIDUAL FORCE             5.064E-06   AT NODE        460   DOF  1
   INSTANCE: AL_ROD_QUDRACTIC-1                                                              
 LARGEST INCREMENT OF DISP.        -1.353E-08   AT NODE        477   DOF  1
   INSTANCE: AL_ROD_QUDRACTIC-1                                                              
 LARGEST CORRECTION TO DISP.        4.759E-15   AT NODE        953   DOF  1
   INSTANCE: AL_ROD_QUDRACTIC-1                                                              
          THE FORCE     EQUILIBRIUM EQUATIONS HAVE CONVERGED

 ITERATION SUMMARY FOR THE INCREMENT:   1 TOTAL ITERATIONS, OF WHICH
   0 ARE SEVERE DISCONTINUITY ITERATIONS AND  1 ARE EQUILIBRIUM ITERATIONS.

 TIME INCREMENT COMPLETED  1.000E-02,  FRACTION OF STEP COMPLETED  0.402    
 STEP TIME COMPLETED       0.402    ,  TOTAL TIME COMPLETED        0.402    


  INCREMENT    46 STARTS. ATTEMPT NUMBER  1, TIME INCREMENT  1.000E-02

  NUMBER OF EQUATIONS =     1906     NUMBER OF FLOATING PT. OPERATIONS =  1.35E+05

     CHECK POINT   START OF SOLVER    

     CHECK POINT  END OF SOLVER       

       ELAPSED USER TIME (SEC)      =   0.0000    
       ELAPSED SYSTEM TIME (SEC)    =   0.0000    
       ELAPSED TOTAL CPU TIME (SEC) =   0.0000    
[...]
   INSTANCE: AL_ROD_QUDRACTIC-1                                                              
 LARGEST CORRECTION TO DISP.        4.586E-15   AT NODE        477   DOF  1
   INSTANCE: AL_ROD_QUDRACTIC-1                                                              
          THE FORCE     EQUILIBRIUM EQUATIONS HAVE CONVERGED

 ITERATION SUMMARY FOR THE INCREMENT:   1 TOTAL ITERATIONS, OF WHICH
   0 ARE SEVERE DISCONTINUITY ITERATIONS AND  1 ARE EQUILIBRIUM ITERATIONS.

 TIME INCREMENT COMPLETED  1.000E-02,  FRACTION OF STEP COMPLETED  0.892    
 STEP TIME COMPLETED       0.892    ,  TOTAL TIME COMPLETED        0.892    


  INCREMENT    95 STARTS. ATTEMPT NUMBER  1, TIME INCREMENT  1.000E-02

  NUMBER OF EQUATIONS =     1906     NUMBER OF FLOATING PT. OPERATIONS =  1.35E+05

     CHECK POINT   START OF SOLVER    

     CHECK POINT  END OF SOLVER       

       ELAPSED USER TIME (SEC)      =   0.0000    
       ELAPSED SYSTEM TIME (SEC)    =   0.0000    
       ELAPSED TOTAL CPU TIME (SEC) =   0.0000    
       ELAPSED WALLCLOCK TIME (SEC) =          0
 

 ***WARNING: THE SYSTEM MATRIX HAS 547 NEGATIVE EIGENVALUES.
             EXPLANATIONS ARE SUGGESTED AFTER THE FIRST OCCURRENCE OF THIS MESSAGE.

               CONVERGENCE CHECKS FOR EQUILIBRIUM ITERATION     1


 AVERAGE FORCE                       7.74       TIME AVG. FORCE        3.72    
 LARGEST RESIDUAL FORCE             4.457E-06   AT NODE        463   DOF  1
   INSTANCE: AL_ROD_QUDRACTIC-1                                                              
 LARGEST INCREMENT OF DISP.        -1.353E-08   AT NODE        477   DOF  1
   INSTANCE: AL_ROD_QUDRACTIC-1                                                              
 LARGEST CORRECTION TO DISP.        5.264E-15   AT NODE        477   DOF  1
   INSTANCE: AL_ROD_QUDRACTIC-1                                                              
          THE FORCE     EQUILIBRIUM EQUATIONS HAVE CONVERGED

 ITERATION SUMMARY FOR THE INCREMENT:   1 TOTAL ITERATIONS, OF WHICH
   0 ARE SEVERE DISCONTINUITY ITERATIONS AND  1 ARE EQUILIBRIUM ITERATIONS.

 TIME INCREMENT COMPLETED  1.000E-02,  FRACTION OF STEP COMPLETED  0.902    
 STEP TIME COMPLETED       0.902    ,  TOTAL TIME COMPLETED        0.902    


  INCREMENT    96 STARTS. ATTEMPT NUMBER  1, TIME INCREMENT  1.000E-02

  NUMBER OF EQUATIONS =     1906     NUMBER OF FLOATING PT. OPERATIONS =  1.35E+05

     CHECK POINT   START OF SOLVER    

     CHECK POINT  END OF SOLVER       

       ELAPSED USER TIME (SEC)      =   0.0000    
       ELAPSED SYSTEM TIME (SEC)    =   0.0000    
       ELAPSED TOTAL CPU TIME (SEC) =   0.0000    
       ELAPSED WALLCLOCK TIME (SEC) =          0
 

 ***WARNING: THE SYSTEM MATRIX HAS 547 NEGATIVE EIGENVALUES.
             EXPLANATIONS ARE SUGGESTED AFTER THE FIRST OCCURRENCE OF THIS MESSAGE.

               CONVERGENCE CHECKS FOR EQUILIBRIUM ITERATION     1


 AVERAGE FORCE                       7.83       TIME AVG. FORCE        3.76    
 LARGEST RESIDUAL FORCE             5.257E-06   AT NODE        471   DOF  1
   INSTANCE: AL_ROD_QUDRACTIC-1                                                              
 LARGEST INCREMENT OF DISP.        -1.353E-08   AT NODE        477   DOF  1
   INSTANCE: AL_ROD_QUDRACTIC-1                                                              
 LARGEST CORRECTION TO DISP.        4.646E-15   AT NODE        953   DOF  1
   INSTANCE: AL_ROD_QUDRACTIC-1                                                              
          THE FORCE     EQUILIBRIUM EQUATIONS HAVE CONVERGED

 ITERATION SUMMARY FOR THE INCREMENT:   1 TOTAL ITERATIONS, OF WHICH
   0 ARE SEVERE DISCONTINUITY ITERATIONS AND  1 ARE EQUILIBRIUM ITERATIONS.

 TIME INCREMENT COMPLETED  1.000E-02,  FRACTION OF STEP COMPLETED  0.912    
 STEP TIME COMPLETED       0.912    ,  TOTAL TIME COMPLETED        0.912    


  INCREMENT    97 STARTS. ATTEMPT NUMBER  1, TIME INCREMENT  1.000E-02

  NUMBER OF EQUATIONS =     1906     NUMBER OF FLOATING PT. OPERATIONS =  1.35E+05

     CHECK POINT   START OF SOLVER    

     CHECK POINT  END OF SOLVER       

       ELAPSED USER TIME (SEC)      =   0.0000    
       ELAPSED SYSTEM TIME (SEC)    =   0.0000    
       ELAPSED TOTAL CPU TIME (SEC) =   0.0000    
       ELAPSED WALLCLOCK TIME (SEC) =          0
 

 ***WARNING: THE SYSTEM MATRIX HAS 547 NEGATIVE EIGENVALUES.
             EXPLANATIONS ARE SUGGESTED AFTER THE FIRST OCCURRENCE OF THIS MESSAGE.

               CONVERGENCE CHECKS FOR EQUILIBRIUM ITERATION     1


 AVERAGE FORCE                       7.91       TIME AVG. FORCE        3.80    
 LARGEST RESIDUAL FORCE            -3.602E-06   AT NODE        813   DOF  1
   INSTANCE: AL_ROD_QUDRACTIC-1                                                              
 LARGEST INCREMENT OF DISP.        -1.353E-08   AT NODE        477   DOF  1
   INSTANCE: AL_ROD_QUDRACTIC-1                                                              
 LARGEST CORRECTION TO DISP.        4.127E-15   AT NODE        477   DOF  1
   INSTANCE: AL_ROD_QUDRACTIC-1                                                              
          THE FORCE     EQUILIBRIUM EQUATIONS HAVE CONVERGED

 ITERATION SUMMARY FOR THE INCREMENT:   1 TOTAL ITERATIONS, OF WHICH
   0 ARE SEVERE DISCONTINUITY ITERATIONS AND  1 ARE EQUILIBRIUM ITERATIONS.

 TIME INCREMENT COMPLETED  1.000E-02,  FRACTION OF STEP COMPLETED  0.922    
 STEP TIME COMPLETED       0.922    ,  TOTAL TIME COMPLETED        0.922    


  INCREMENT    98 STARTS. ATTEMPT NUMBER  1, TIME INCREMENT  1.000E-02

  NUMBER OF EQUATIONS =     1906     NUMBER OF FLOATING PT. OPERATIONS =  1.35E+05

     CHECK POINT   START OF SOLVER    

     CHECK POINT  END OF SOLVER       

       ELAPSED USER TIME (SEC)      =   0.0000    
       ELAPSED SYSTEM TIME (SEC)    =   0.0000    
       ELAPSED TOTAL CPU TIME (SEC) =   0.0000    
       ELAPSED WALLCLOCK TIME (SEC) =          0
 

 ***WARNING: THE SYSTEM MATRIX HAS 547 NEGATIVE EIGENVALUES.
             EXPLANATIONS ARE SUGGESTED AFTER THE FIRST OCCURRENCE OF THIS MESSAGE.

               CONVERGENCE CHECKS FOR EQUILIBRIUM ITERATION     1


 AVERAGE FORCE                       8.00       TIME AVG. FORCE        3.85    
 LARGEST RESIDUAL FORCE             5.004E-06   AT NODE        945   DOF  1
   INSTANCE: AL_ROD_QUDRACTIC-1                                                              
 LARGEST INCREMENT OF DISP.        -1.353E-08   AT NODE        477   DOF  1
   INSTANCE: AL_ROD_QUDRACTIC-1                                                              
 LARGEST CORRECTION TO DISP.        5.757E-15   AT NODE        951   DOF  1
   INSTANCE: AL_ROD_QUDRACTIC-1                                                              
          THE FORCE     EQUILIBRIUM EQUATIONS HAVE CONVERGED

 ITERATION SUMMARY FOR THE INCREMENT:   1 TOTAL ITERATIONS, OF WHICH
   0 ARE SEVERE DISCONTINUITY ITERATIONS AND  1 ARE EQUILIBRIUM ITERATIONS.

 TIME INCREMENT COMPLETED  1.000E-02,  FRACTION OF STEP COMPLETED  0.932    
 STEP TIME COMPLETED       0.932    ,  TOTAL TIME COMPLETED        0.932    


  INCREMENT    99 STARTS. ATTEMPT NUMBER  1, TIME INCREMENT  1.000E-02

  NUMBER OF EQUATIONS =     1906     NUMBER OF FLOATING PT. OPERATIONS =  1.35E+05

     CHECK POINT   START OF SOLVER    

     CHECK POINT  END OF SOLVER       

       ELAPSED USER TIME (SEC)      =   0.0000    
       ELAPSED SYSTEM TIME (SEC)    =   0.0000    
       ELAPSED TOTAL CPU TIME (SEC) =   0.0000    
       ELAPSED WALLCLOCK TIME (SEC) =          0
 

 ***WARNING: THE SYSTEM MATRIX HAS 547 NEGATIVE EIGENVALUES.
             EXPLANATIONS ARE SUGGESTED AFTER THE FIRST OCCURRENCE OF THIS MESSAGE.

               CONVERGENCE CHECKS FOR EQUILIBRIUM ITERATION     1


 AVERAGE FORCE                       8.09       TIME AVG. FORCE        3.89    
 LARGEST RESIDUAL FORCE             4.403E-06   AT NODE        953   DOF  1
   INSTANCE: AL_ROD_QUDRACTIC-1                                                              
 LARGEST INCREMENT OF DISP.        -1.353E-08   AT NODE        477   DOF  1
   INSTANCE: AL_ROD_QUDRACTIC-1                                                              
 LARGEST CORRECTION TO DISP.        4.848E-15   AT NODE        477   DOF  1
   INSTANCE: AL_ROD_QUDRACTIC-1                                                              
          THE FORCE     EQUILIBRIUM EQUATIONS HAVE CONVERGED

 ITERATION SUMMARY FOR THE INCREMENT:   1 TOTAL ITERATIONS, OF WHICH
   0 ARE SEVERE DISCONTINUITY ITERATIONS AND  1 ARE EQUILIBRIUM ITERATIONS.

 TIME INCREMENT COMPLETED  1.000E-02,  FRACTION OF STEP COMPLETED  0.942    
 STEP TIME COMPLETED       0.942    ,  TOTAL TIME COMPLETED        0.942    


  INCREMENT   100 STARTS. ATTEMPT NUMBER  1, TIME INCREMENT  1.000E-02

  NUMBER OF EQUATIONS =     1906     NUMBER OF FLOATING PT. OPERATIONS =  1.35E+05

     CHECK POINT   START OF SOLVER    

     CHECK POINT  END OF SOLVER       

       ELAPSED USER TIME (SEC)      =   0.0000    
       ELAPSED SYSTEM TIME (SEC)    =   0.0000    
       ELAPSED TOTAL CPU TIME (SEC) =   0.0000    
       ELAPSED WALLCLOCK TIME (SEC) =          0
 

 ***WARNING: THE SYSTEM MATRIX HAS 547 NEGATIVE EIGENVALUES.
             EXPLANATIONS ARE SUGGESTED AFTER THE FIRST OCCURRENCE OF THIS MESSAGE.

               CONVERGENCE CHECKS FOR EQUILIBRIUM ITERATION     1


 AVERAGE FORCE                       8.17       TIME AVG. FORCE        3.93    
 LARGEST RESIDUAL FORCE            -4.733E-06   AT NODE        942   DOF  1
   INSTANCE: AL_ROD_QUDRACTIC-1                                                              
 LARGEST INCREMENT OF DISP.        -1.353E-08   AT NODE        477   DOF  1
   INSTANCE: AL_ROD_QUDRACTIC-1                                                              
 LARGEST CORRECTION TO DISP.        4.840E-15   AT NODE        949   DOF  1
   INSTANCE: AL_ROD_QUDRACTIC-1                                                              
          THE FORCE     EQUILIBRIUM EQUATIONS HAVE CONVERGED

 ITERATION SUMMARY FOR THE INCREMENT:   1 TOTAL ITERATIONS, OF WHICH
   0 ARE SEVERE DISCONTINUITY ITERATIONS AND  1 ARE EQUILIBRIUM ITERATIONS.

 TIME INCREMENT COMPLETED  1.000E-02,  FRACTION OF STEP COMPLETED  0.952    
 STEP TIME COMPLETED       0.952    ,  TOTAL TIME COMPLETED        0.952    


  INCREMENT   101 STARTS. ATTEMPT NUMBER  1, TIME INCREMENT  1.000E-02

  NUMBER OF EQUATIONS =     1906     NUMBER OF FLOATING PT. OPERATIONS =  1.35E+05

     CHECK POINT   START OF SOLVER    

     CHECK POINT  END OF SOLVER       

       ELAPSED USER TIME (SEC)      =   0.0000    
       ELAPSED SYSTEM TIME (SEC)    =   0.0000    
       ELAPSED TOTAL CPU TIME (SEC) =   0.0000    
       ELAPSED WALLCLOCK TIME (SEC) =          0
 

 ***WARNING: THE SYSTEM MATRIX HAS 547 NEGATIVE EIGENVALUES.
             EXPLANATIONS ARE SUGGESTED AFTER THE FIRST OCCURRENCE OF THIS MESSAGE.

               CONVERGENCE CHECKS FOR EQUILIBRIUM ITERATION     1


 AVERAGE FORCE                       8.26       TIME AVG. FORCE        3.97    
 LARGEST RESIDUAL FORCE            -3.930E-06   AT NODE        459   DOF  1
   INSTANCE: AL_ROD_QUDRACTIC-1                                                              
 LARGEST INCREMENT OF DISP.        -1.353E-08   AT NODE        477   DOF  1
   INSTANCE: AL_ROD_QUDRACTIC-1                                                              
 LARGEST CORRECTION TO DISP.        4.638E-15   AT NODE        477   DOF  1
   INSTANCE: AL_ROD_QUDRACTIC-1                                                              
          THE FORCE     EQUILIBRIUM EQUATIONS HAVE CONVERGED

 ITERATION SUMMARY FOR THE INCREMENT:   1 TOTAL ITERATIONS, OF WHICH
   0 ARE SEVERE DISCONTINUITY ITERATIONS AND  1 ARE EQUILIBRIUM ITERATIONS.

 TIME INCREMENT COMPLETED  1.000E-02,  FRACTION OF STEP COMPLETED  0.962    
 STEP TIME COMPLETED       0.962    ,  TOTAL TIME COMPLETED        0.962    


  INCREMENT   102 STARTS. ATTEMPT NUMBER  1, TIME INCREMENT  1.000E-02

  NUMBER OF EQUATIONS =     1906     NUMBER OF FLOATING PT. OPERATIONS =  1.35E+05

     CHECK POINT   START OF SOLVER    

     CHECK POINT  END OF SOLVER       

       ELAPSED USER TIME (SEC)      =   0.0000    
       ELAPSED SYSTEM TIME (SEC)    =   0.0000    
       ELAPSED TOTAL CPU TIME (SEC) =   0.0000    
       ELAPSED WALLCLOCK TIME (SEC) =          0
 

 ***WARNING: THE SYSTEM MATRIX HAS 547 NEGATIVE EIGENVALUES.
             EXPLANATIONS ARE SUGGESTED AFTER THE FIRST OCCURRENCE OF THIS MESSAGE.

               CONVERGENCE CHECKS FOR EQUILIBRIUM ITERATION     1


 AVERAGE FORCE                       8.34       TIME AVG. FORCE        4.02    
 LARGEST RESIDUAL FORCE             5.115E-06   AT NODE        891   DOF  1
   INSTANCE: AL_ROD_QUDRACTIC-1                                                              
 LARGEST INCREMENT OF DISP.        -1.353E-08   AT NODE        477   DOF  1
   INSTANCE: AL_ROD_QUDRACTIC-1                                                              
 LARGEST CORRECTION TO DISP.        4.261E-15   AT NODE        477   DOF  1
   INSTANCE: AL_ROD_QUDRACTIC-1                                                              
          THE FORCE     EQUILIBRIUM EQUATIONS HAVE CONVERGED

 ITERATION SUMMARY FOR THE INCREMENT:   1 TOTAL ITERATIONS, OF WHICH
   0 ARE SEVERE DISCONTINUITY ITERATIONS AND  1 ARE EQUILIBRIUM ITERATIONS.

 TIME INCREMENT COMPLETED  1.000E-02,  FRACTION OF STEP COMPLETED  0.972    
 STEP TIME COMPLETED       0.972    ,  TOTAL TIME COMPLETED        0.972    


  INCREMENT   103 STARTS. ATTEMPT NUMBER  1, TIME INCREMENT  1.000E-02

  NUMBER OF EQUATIONS =     1906     NUMBER OF FLOATING PT. OPERATIONS =  1.35E+05

     CHECK POINT   START OF SOLVER    

     CHECK POINT  END OF SOLVER       

       ELAPSED USER TIME (SEC)      =   0.0000    
       ELAPSED SYSTEM TIME (SEC)    =   0.0000    
       ELAPSED TOTAL CPU TIME (SEC) =   0.0000    
       ELAPSED WALLCLOCK TIME (SEC) =          0
 

 ***WARNING: THE SYSTEM MATRIX HAS 547 NEGATIVE EIGENVALUES.
             EXPLANATIONS ARE SUGGESTED AFTER THE FIRST OCCURRENCE OF THIS MESSAGE.

               CONVERGENCE CHECKS FOR EQUILIBRIUM ITERATION     1


 AVERAGE FORCE                       8.43       TIME AVG. FORCE        4.06    
 LARGEST RESIDUAL FORCE             4.484E-06   AT NODE        931   DOF  1
   INSTANCE: AL_ROD_QUDRACTIC-1                                                              
 LARGEST INCREMENT OF DISP.        -1.353E-08   AT NODE        477   DOF  1
   INSTANCE: AL_ROD_QUDRACTIC-1                                                              
 LARGEST CORRECTION TO DISP.        6.109E-15   AT NODE        953   DOF  1
   INSTANCE: AL_ROD_QUDRACTIC-1                                                              
          THE FORCE     EQUILIBRIUM EQUATIONS HAVE CONVERGED

 ITERATION SUMMARY FOR THE INCREMENT:   1 TOTAL ITERATIONS, OF WHICH
   0 ARE SEVERE DISCONTINUITY ITERATIONS AND  1 ARE EQUILIBRIUM ITERATIONS.

 TIME INCREMENT COMPLETED  1.000E-02,  FRACTION OF STEP COMPLETED  0.982    
 STEP TIME COMPLETED       0.982    ,  TOTAL TIME COMPLETED        0.982    


  INCREMENT   104 STARTS. ATTEMPT NUMBER  1, TIME INCREMENT  1.000E-02

  NUMBER OF EQUATIONS =     1906     NUMBER OF FLOATING PT. OPERATIONS =  1.35E+05

     CHECK POINT   START OF SOLVER    

     CHECK POINT  END OF SOLVER       

       ELAPSED USER TIME (SEC)      =   0.0000    
       ELAPSED SYSTEM TIME (SEC)    =   0.0000    
       ELAPSED TOTAL CPU TIME (SEC) =   0.0000    
       ELAPSED WALLCLOCK TIME (SEC) =          0
 

 ***WARNING: THE SYSTEM MATRIX HAS 547 NEGATIVE EIGENVALUES.
             EXPLANATIONS ARE SUGGESTED AFTER THE FIRST OCCURRENCE OF THIS MESSAGE.

               CONVERGENCE CHECKS FOR EQUILIBRIUM ITERATION     1


 AVERAGE FORCE                       8.51       TIME AVG. FORCE        4.10    
 LARGEST RESIDUAL FORCE            -5.412E-06   AT NODE        944   DOF  1
   INSTANCE: AL_ROD_QUDRACTIC-1                                                              
 LARGEST INCREMENT OF DISP.        -1.353E-08   AT NODE        477   DOF  1
   INSTANCE: AL_ROD_QUDRACTIC-1                                                              
 LARGEST CORRECTION TO DISP.        3.850E-15   AT NODE        804   DOF  1
   INSTANCE: AL_ROD_QUDRACTIC-1                                                              
          THE FORCE     EQUILIBRIUM EQUATIONS HAVE CONVERGED

 ITERATION SUMMARY FOR THE INCREMENT:   1 TOTAL ITERATIONS, OF WHICH
   0 ARE SEVERE DISCONTINUITY ITERATIONS AND  1 ARE EQUILIBRIUM ITERATIONS.

 TIME INCREMENT COMPLETED  1.000E-02,  FRACTION OF STEP COMPLETED  0.992    
 STEP TIME COMPLETED       0.992    ,  TOTAL TIME COMPLETED        0.992    


  INCREMENT   105 STARTS. ATTEMPT NUMBER  1, TIME INCREMENT  8.219E-03

  NUMBER OF EQUATIONS =     1906     NUMBER OF FLOATING PT. OPERATIONS =  1.35E+05

     CHECK POINT   START OF SOLVER    

     CHECK POINT  END OF SOLVER       

       ELAPSED USER TIME (SEC)      =   0.0000    
       ELAPSED SYSTEM TIME (SEC)    =   0.0000    
       ELAPSED TOTAL CPU TIME (SEC) =   0.0000    
       ELAPSED WALLCLOCK TIME (SEC) =          0
 

 ***WARNING: THE SYSTEM MATRIX HAS 547 NEGATIVE EIGENVALUES.
             EXPLANATIONS ARE SUGGESTED AFTER THE FIRST OCCURRENCE OF THIS MESSAGE.

               CONVERGENCE CHECKS FOR EQUILIBRIUM ITERATION     1


 AVERAGE FORCE                       8.59       TIME AVG. FORCE        4.15    
 LARGEST RESIDUAL FORCE             3.832E-06   AT NODE        891   DOF  1
   INSTANCE: AL_ROD_QUDRACTIC-1                                                              
 LARGEST INCREMENT OF DISP.        -1.112E-08   AT NODE        477   DOF  1
   INSTANCE: AL_ROD_QUDRACTIC-1                                                              
 LARGEST CORRECTION TO DISP.        3.996E-15   AT NODE        472   DOF  1
   INSTANCE: AL_ROD_QUDRACTIC-1                                                              
          THE FORCE     EQUILIBRIUM EQUATIONS HAVE CONVERGED

 ITERATION SUMMARY FOR THE INCREMENT:   1 TOTAL ITERATIONS, OF WHICH
   0 ARE SEVERE DISCONTINUITY ITERATIONS AND  1 ARE EQUILIBRIUM ITERATIONS.

 TIME INCREMENT COMPLETED  8.219E-03,  FRACTION OF STEP COMPLETED   1.00    
 STEP TIME COMPLETED        1.00    ,  TOTAL TIME COMPLETED         1.00    


          THE ANALYSIS HAS BEEN COMPLETED



     ANALYSIS SUMMARY:
     TOTAL OF        105  INCREMENTS
                       0  CUTBACKS IN AUTOMATIC INCREMENTATION
                     105  ITERATIONS INCLUDING CONTACT ITERATIONS IF PRESENT
                     105  PASSES THROUGH THE EQUATION SOLVER OF WHICH 
                     105  INVOLVE MATRIX DECOMPOSITION, INCLUDING
                       0  DECOMPOSITION(S) OF THE MASS MATRIX
                       1  REORDERING OF EQUATIONS TO MINIMIZE WAVEFRONT
                       0  ADDITIONAL RESIDUAL EVALUATIONS FOR LINE SEARCHES
                       0  ADDITIONAL OPERATOR EVALUATIONS FOR LINE SEARCHES
                       1  WARNING MESSAGES DURING USER INPUT PROCESSING
                     104  WARNING MESSAGES DURING ANALYSIS
                       0  ANALYSIS WARNINGS ARE NUMERICAL PROBLEM MESSAGES
                     104  ANALYSIS WARNINGS ARE NEGATIVE EIGENVALUE MESSAGES
                       0  ERROR MESSAGES



     JOB TIME SUMMARY
       USER TIME (SEC)      =   5.3000    
       SYSTEM TIME (SEC)    =  0.60000    
       TOTAL CPU TIME (SEC) =   5.9000    
       WALLCLOCK TIME (SEC) =          6
