**  file created by  A N S A  Wed Mar 04 13:21:33 2015
** 
**  output from :
** 
**  C:/Users/Gaurav/Project_01/Al_Rod.ansa
** 
*Heading
** Job name: Linear_Hexa Model name: Al_Rod_1st_Hexa
** Generated by: Abaqus/CAE Student Edition 6.14-2
*Preprint, echo=NO, model=NO, history=NO, contact=NO
**
** PARTS
**
*Part, name=PART-1
*Node
  10001,           0.,  7.40254734e-07,  -1.4716583e-12
  10002,           0.,           0., -0.00499999989
  10003,           0., 0.00353569956, -0.00353556895
  10004,           0., 0.00499999989,           0.
  10005, 0.00499999989,  7.40254734e-07,  -1.46912495e-12
  10006, 0.00499999989,           0., -0.00499999989
  10007, 0.00499999989, 0.00353569956, -0.00353556895
  10008, 0.00499999989, 0.00499999989,           0.
  10009, 0.00999999978,  7.40254734e-07,  -1.46659161e-12
  10010, 0.00999999978,           0., -0.00499999989
  10011, 0.00999999978, 0.00353569956, -0.00353556895
  10012, 0.00999999978, 0.00499999989,           0.
  10013, 0.0149999997,  7.40254734e-07,  -1.46405826e-12
  10014, 0.0149999997,           0., -0.00499999989
  10015, 0.0149999997, 0.00353569956, -0.00353556895
  10016, 0.0149999997, 0.00499999989,           0.
  10017, 0.0199999996,  7.40254734e-07,  -1.46152491e-12
  10018, 0.0199999996,           0., -0.00499999989
  10019, 0.0199999996, 0.00353569956, -0.00353556895
  10020, 0.0199999996, 0.00499999989,           0.
** ... 889 like lines cut
*Element, type=C3D8
100001, 10001, 10002, 10003, 10004, 10005, 10006, 10007, 10008
100002, 10005, 10006, 10007, 10008, 10009, 10010, 10011, 10012
100003, 10009, 10010, 10011, 10012, 10013, 10014, 10015, 10016
100004, 10013, 10014, 10015, 10016, 10017, 10018, 10019, 10020
100005, 10017, 10018, 10019, 10020, 10021, 10022, 10023, 10024
100006, 10021, 10022, 10023, 10024, 10025, 10026, 10027, 10028
100007, 10025, 10026, 10027, 10028, 10029, 10030, 10031, 10032
100008, 10029, 10030, 10031, 10032, 10033, 10034, 10035, 10036
100009, 10033, 10034, 10035, 10036, 10037, 10038, 10039, 10040
100010, 10037, 10038, 10039, 10040, 10041, 10042, 10043, 10044
100011, 10041, 10042, 10043, 10044, 10045, 10046, 10047, 10048
100012, 10045, 10046, 10047, 10048, 10049, 10050, 10051, 10052
100013, 10049, 10050, 10051, 10052, 10053, 10054, 10055, 10056
100014, 10053, 10054, 10055, 10056, 10057, 10058, 10059, 10060
100015, 10057, 10058, 10059, 10060, 10061, 10062, 10063, 10064
100016, 10061, 10062, 10063, 10064, 10065, 10066, 10067, 10068
100017, 10065, 10066, 10067, 10068, 10069, 10070, 10071, 10072
100018, 10069, 10070, 10071, 10072, 10073, 10074, 10075, 10076
100019, 10073, 10074, 10075, 10076, 10077, 10078, 10079, 10080
100020, 10077, 10078, 10079, 10080, 10081, 10082, 10083, 10084
** ... 380 like lines cut
*Elset, elset=AL_ROD_1ST_HEXA, generate
 100001,  100400,       1
** Section: Section-1-AL_ROD_1ST_HEXA
*Solid Section, elset=AL_ROD_1ST_HEXA, material=ALUMINIUM
,
*End Part
**  
**
** ASSEMBLY
**
*Assembly, name=Assembly
**  
*Instance, name=PART-1-1, part=PART-1
*End Instance
**  
*Nset, nset=FIXED_SURFACE, instance=PART-1-1
 10001, 10002, 10003, 10004, 10405, 10406, 10607, 10608, 10809
*Elset, elset=Set-2, instance=PART-1-1, generate
 100001,  100400,       1
*Elset, elset=_TRACTION_LOAD_S2, internal, instance=PART-1-1, generate
 100100,  100400,     100
*Surface, type=ELEMENT, name=TRACTION_LOAD
_TRACTION_LOAD_S2, S2
*End Assembly
** 
** MATERIALS
** 
** 
** Aluminium
** 
*Material, name=Aluminium
*Density
2780.,
*Elastic
 7e+10, 0.35
** ----------------------------------------------------------------
** 
** STEP: Body_Force_Linear
** 
*Step, name=Body_Force_Linear, nlgeom=YES, inc=1000
*Static
0.001, 1., 1e-05, 0.01
** 
** BOUNDARY CONDITIONS
** 
** Name: Disp-BC-1 Type: Displacement/Rotation
*Boundary
FIXED_SURFACE, 1, 1
FIXED_SURFACE, 2, 2
FIXED_SURFACE, 3, 3
FIXED_SURFACE, 4, 4
FIXED_SURFACE, 5, 5
FIXED_SURFACE, 6, 6
** 
** LOADS
** 
** Name: Body_Force   Type: Body force Using Field: Body_Force_SineWave
*Dload
PART-1-1.100001, BX, 156.918
PART-1-1.100002, BX, 466.891
PART-1-1.100003, BX, 765.367
PART-1-1.100004, BX, 1045.
PART-1-1.100005, BX, 1298.9
PART-1-1.100006, BX, 1520.81
PART-1-1.100007, BX, 1705.28
PART-1-1.100008, BX, 1847.76
PART-1-1.100009, BX, 1944.74
PART-1-1.100010, BX, 1993.83
PART-1-1.100011, BX, 1993.83
PART-1-1.100012, BX, 1944.74
PART-1-1.100013, BX, 1847.76
PART-1-1.100014, BX, 1705.28
PART-1-1.100015, BX, 1520.81
PART-1-1.100016, BX, 1298.9
PART-1-1.100017, BX, 1045.
PART-1-1.100018, BX, 765.367
PART-1-1.100019, BX, 466.891
PART-1-1.100020, BX, 156.918
** ... 380 like lines cut
** Name: Traction_Load   Type: Pressure
*Dsload
TRACTION_LOAD, P, 1e+06
** 
** OUTPUT REQUESTS
** 
*Restart, write, frequency=0
** 
** FIELD OUTPUT: F-Output-1
** 
*Output, field
*Node Output
RF, TF, U
*Element Output, directions=YES
BF, LE, PE, PEEQ, PEMAG, S, SF
** 
** HISTORY OUTPUT: H-Output-1
** 
*Output, history, variable=PRESELECT
*End Step
