**  file created by  A N S A  Fri Mar 06 00:55:54 2015
** 
**  output from :
** 
**  C:/Users/Gaurav/Project_01/Linear_Truss.ansa
** 
*Heading
** Job name: Linear_Truss Model name: Linear_Truss
** Generated by: Abaqus/CAE Student Edition 6.14-2
*Preprint, echo=NO, model=NO, history=NO, contact=NO
**
** PARTS
**
*Part, name=PART-1
*Node
    502,          0.5,           0.,           0.
    503,   0.49949494,           0.,           0.
    504,   0.49898991,           0.,           0.
    505,   0.49848485,           0.,           0.
    506,   0.49797979,           0.,           0.
    507,   0.49747476,           0.,           0.
    508,    0.4969697,           0.,           0.
    509,   0.49646464,           0.,           0.
    510,   0.49595961,           0.,           0.
    511,   0.49545455,           0.,           0.
    512,   0.49494949,           0.,           0.
    513,   0.49444443,           0.,           0.
    514,    0.4939394,           0.,           0.
    515,   0.49343434,           0.,           0.
    516,   0.49292928,           0.,           0.
    517,   0.49242425,           0.,           0.
    518,   0.49191919,           0.,           0.
    519,   0.49141413,           0.,           0.
    520,    0.4909091,           0.,           0.
    521,   0.49040404,           0.,           0.
** ... 971 like lines cut
*Element, type=T3D2
  1,  502,  503
  2,  503,  504
  3,  504,  505
  4,  505,  506
  5,  506,  507
  6,  507,  508
  7,  508,  509
  8,  509,  510
  9,  510,  511
 10,  511,  512
 11,  512,  513
 12,  513,  514
 13,  514,  515
 14,  515,  516
 15,  516,  517
 16,  517,  518
 17,  518,  519
 18,  519,  520
 19,  520,  521
 20,  521,  522
** ... 970 like lines cut
*Elset, elset=ALUMINIUM_ROD_TRUSS, generate
   1,  990,    1
** Section: Section-1-ALUMINIUM_ROD_TRUSS
*Solid Section, elset=ALUMINIUM_ROD_TRUSS, material=ALUMINIUM
7.85398e-05,
*End Part
**  
**
** ASSEMBLY
**
*Assembly, name=Assembly
**  
*Instance, name=PART-1-1, part=PART-1
*End Instance
**  
*Elset, elset=All, instance=PART-1-1, generate
   1,  990,    1
*Nset, nset=FIXED_NODE, instance=PART-1-1
 1492,
*Nset, nset=TRACTION_NODE, instance=PART-1-1
 502,
*End Assembly
** 
** MATERIALS
** 
** 
** Aluminium
** 
*Material, name=ALUMINIUM
*Density
 2.78,
*Elastic
 7e+10, 0.33
** 
** BOUNDARY CONDITIONS
** 
** Name: Disp-BC-1 Type: Displacement/Rotation
*Boundary
FIXED_NODE, 1, 1
FIXED_NODE, 2, 2
FIXED_NODE, 3, 3
FIXED_NODE, 4, 4
FIXED_NODE, 5, 5
FIXED_NODE, 6, 6
** ----------------------------------------------------------------
** 
** STEP: Linear_Truss
** 
*Step, name=Linear_Truss, nlgeom=YES, inc=1000
*Static
0.001, 1., 1e-05, 0.01
** 
** LOADS
** 
** Name: Body_Force   Type: Body force Using Field: Body_Force_SineWave
*Dload
PART-1-1.1, BX, 202034.
PART-1-1.2, BX, 606003.
PART-1-1.3, BX, 1.00982e+06
PART-1-1.4, BX, 1.41343e+06
PART-1-1.5, BX, 1.81664e+06
PART-1-1.6, BX, 2.21938e+06
PART-1-1.7, BX, 2.62162e+06
PART-1-1.8, BX, 3.02315e+06
PART-1-1.9, BX, 3.42392e+06
PART-1-1.10, BX, 3.82388e+06
PART-1-1.11, BX, 4.22282e+06
PART-1-1.12, BX, 4.62073e+06
PART-1-1.13, BX, 5.01747e+06
PART-1-1.14, BX, 5.41293e+06
PART-1-1.15, BX, 5.80704e+06
PART-1-1.16, BX, 6.1997e+06
PART-1-1.17, BX, 6.59077e+06
PART-1-1.18, BX, 6.9802e+06
PART-1-1.19, BX, 7.36788e+06
PART-1-1.20, BX, 7.75368e+06
** ... 970 like lines cut
** Name: Traction_Compressive   Type: Concentrated force
*Cload
TRACTION_NODE, 1, -78.5398
** 
** OUTPUT REQUESTS
** 
*Restart, write, frequency=0
** 
** FIELD OUTPUT: F-Output-1
** 
*Output, field
*Node Output
RF, U
*Element Output, directions=YES
BF, E, S
** 
** HISTORY OUTPUT: H-Output-1
** 
*Output, history, variable=PRESELECT
*End Step
