**
**
**
** file created by  A N S A  Mon Apr 20 15:47:44 2015
**
** output from :
**
** C:/Users/Gaurav/Project_03/Beam_Fine_2nd_Order_Coarse.ansa
**
*HEADING

**
**
**
*NODE
  100001,       0.8575708524451795,      -0.4375199845877369,                       0.
  100002,       0.8039594428268995,      -0.3750199845877369,                       0.
  100003,        0.857918885653798,     -0.37503996917547366,                       0.
  100004,       0.9651417048903579,     -0.43753996917547355,                       0.
  100005,       0.9118783284806965,     -0.37505995376321033,                       0.
  100006,       0.8582668900578242,     -0.31256167635753185,                       0.
  100007,       0.8043074472309255,      -0.2500416917697953,                       0.
  100008,        0.965837771307595,      -0.3750799383509471,                       0.
  100009,       0.8586148944618504,     -0.25008338353959025,                       0.
  100010,        1.072712557335536,     -0.43755995376321033,                       0.
  100011,       1.0197972141344935,      -0.3750999229386839,                       0.
  100012,       0.9665337801156474,      -0.3126233527150637,                       0.
  100013,       0.9129223416927751,      -0.2501250753093853,                       0.
  100014,       0.8589628700612839,     -0.18760681331597007,                       0.
  100015,       0.8046554228303591,     -0.12506512154617497,                       0.
  100016,       1.5005597346559192,     -0.38568336626950384,                       0.
  100017,       1.5005597346559196,      -0.2803099026465541,                       0.
  100018,        1.073756656961392,     -0.37511990752642066,                       0.
  100019,       1.6003472233742613,     -0.17293954014834612,                       0.
  100020,       1.6076226297050735,                     -0.5,                       0.
** ... 8020 like lines cut
**
** MEMBRANE and STRUCTURAL ELEMENTS
**
*ELEMENT, TYPE=S8R, ELSET=Beam_Surface
  100001,   100127,   108031,   100123,   100003,   100185,   100186,   100002,   100001
  100002,   100129,   100127,   100003,   100008,   100187,   100001,   100005,   100004
  100003,   100003,   100123,   100124,   100009,   100002,   100188,   100007,   100006
  100004,   100008,   100018,   100131,   100129,   100011,   100010,   100189,   100004
  100005,   100008,   100003,   100009,   100032,   100005,   100006,   100013,   100012
  100006,   100009,   100124,   100126,   100033,   100007,   100190,   100015,   100014
  100007,   100219,   100131,   100018,   100041,   100191,   100010,   100035,   100034
  100008,   100032,   100042,   100018,   100008,   100037,   100036,   100011,   100012
  100009,   100032,   100009,   100033,   100043,   100013,   100014,   100039,   100038
  100010,   100033,   100126,   108039,   100128,   100015,   100192,   100193,   100040
  100011,   100041,   100058,   100220,   100219,   100048,   100044,   100194,   100034
  100012,   100041,   100018,   100042,   100060,   100035,   100036,   100050,   100049
  100013,   100043,   100062,   100042,   100032,   100057,   100056,   100037,   100038
  100014,   100043,   100033,   100128,   100130,   100039,   100040,   100429,   100059
  100015,   100221,   100220,   100058,   100067,   100430,   100044,   100063,   100061
  100016,   100060,   100070,   100058,   100041,   100065,   100064,   100048,   100049
  100017,   100073,   100060,   100042,   100062,   100066,   100050,   100056,   100068
  100018,   100130,   100132,   100062,   100043,   100431,   100069,   100057,   100059
  100019,   100067,   100016,   108040,   100221,   100071,   100657,   100432,   100061
  100020,   100067,   100058,   100070,   100075,   100063,   100064,   100074,   100072
** ... 180 like lines cut
**
** SOLID ELEMENTS
**
*ELEMENT, TYPE=C3D20, ELSET=BEAM_SOLID_SECTION
  100201,   100127,   100003,   100123,   108031,   101922,   102104,   101918,   101474,   100001,   100002,   100186,   100185,   102099,   102096,   102015,
  102014,   103385,   103388,   103387,   103386
  100202,   101922,   102104,   101918,   101474,   101338,   101386,   101342,   100794,   102099,   102096,   102015,   102014,   101381,   101378,   101297,
  101296,   103389,   103392,   103391,   103390
  100203,   101338,   101386,   101342,   100794,   102151,   100706,   102147,   102695,   101381,   101378,   101297,   101296,   100701,   100698,   102192,
  102193,   103393,   103396,   103395,   103394
  100204,   102151,   100706,   102147,   102695,   102831,   102783,   102827,   103375,   100701,   100698,   102192,   102193,   102788,   102791,   102872,
  102873,   103397,   103400,   103399,   103398
  100205,   100129,   100008,   100003,   100127,   101924,   102094,   102104,   101922,   100004,   100005,   100001,   100187,   101937,   101499,   102099,
  102016,   103401,   103402,   103388,   103385
  100206,   101924,   102094,   102104,   101922,   101336,   101376,   101386,   101338,   101937,   101499,   102099,   102016,   101400,   100819,   101381,
  101298,   103403,   103404,   103392,   103389
  100207,   101336,   101376,   101386,   101338,   102153,   100696,   100706,   102151,   101400,   100819,   101381,   101298,   100720,   102670,   100701,
  102191,   103405,   103406,   103396,   103393
  100208,   102153,   100696,   100706,   102151,   102833,   102793,   102783,   102831,   100720,   102670,   100701,   102191,   102769,   103350,   102788,
  102871,   103407,   103408,   103400,   103397
  100209,   100003,   100009,   100124,   100123,   102104,   101936,   101919,   101918,   100006,   100007,   100188,   100002,   101512,   101515,   102017,
  102096,   103388,   103410,   103409,   103387
  100210,   102104,   101936,   101919,   101918,   101386,   101399,   101341,   101342,   101512,   101515,   102017,   102096,   100832,   100835,   101299,
  101378,   103392,   103412,   103411,   103391
** ... 3180 like lines cut
**
** 
**
**
** 
**
**
** SECTION DATA
**
*SHELL SECTION, ELSET=Beam_Surface, MATERIAL=Al
                      1.,
*SOLID SECTION, ELSET=BEAM_SOLID_SECTION, MATERIAL=Al
**
** MATERIALS
**
**
**Al
**
*MATERIAL, NAME=Al
*DENSITY
                 7.85E-9,
*ELASTIC, TYPE=ISOTROPIC
                  6.9E10,                     0.34
**
** 
**
** 
** SETS
** 
*NSET, NSET=Fixed_Support
  100792,   101472,   102697,   103377,   104034,   104038,   104042,   104046,   105017,   105697,
  106377,   107057,   107714,   107718,   107722,   107726,   108033
*NSET, NSET=Roller_Support
  100196,   100197,   100199,   100201,   100203,   100205,   100206,   100627,   100628,   100630,
  100632,   100634,   100636,   100638,   100639,   100791,   101203,   101204,   101206,   101208,
  101210,   101212,   101214,   101215,   101259,   101260,   101262,   101264,   101266,   101268,
  101269,   101471,   101867,   101868,   101870,   101872,   101874,   101876,   101878,   101879,
  101977,   101978,   101980,   101982,   101984,   101986,   101987,   102220,   102221,   102223,
  102225,   102227,   102229,   102230,   102274,   102275,   102277,   102279,   102281,   102283,
  102285,   102286,   102698,   102900,   102901,   102903,   102905,   102907,   102909,   102910,
  102954,   102955,   102957,   102959,   102961,   102963,   102965,   102966,   103378,   104035,
  104039,   104043,   104047,   104049,   104051,   104053,   104055,   104066,   104068,   104070,
  104072,   104085,   104087,   104089,   104091,   104110,   104112,   104114,   104116,   104137,
  104139,   104141,   104143,   104166,   104168,   104170,   104172,   104197,   104199,   104201,
  104203,   104540,   104541,   104543,   104545,   104547,   104549,   104550,   104594,   104595,
  104597,   104599,   104601,   104603,   104605,   104606,   105018,   105220,   105221,   105223,
  105225,   105227,   105229,   105230,   105274,   105275,   105277,   105279,   105281,   105283,
  105285,   105286,   105698,   105900,   105901,   105903,   105905,   105907,   105909,   105910,
  105954,   105955,   105957,   105959,   105961,   105963,   105965,   105966,   106378,   106580,
  106581,   106583,   106585,   106587,   106589,   106590,   106634,   106635,   106637,   106639,
  106641,   106643,   106645,   106646,   107058,   107715,   107719,   107723,   107727,   107729,
  107731,   107733,   107735,   107746,   107748,   107750,   107752,   107765,   107767,   107769,
  107771,   107790,   107792,   107794,   107796,   107817,   107819,   107821,   107823,   107846,
  107848,   107850,   107852,   107877,   107879,   107881,   107883,   108034
