**
**
**
** file created by  A N S A  Sat Apr 18 15:52:44 2015
**
** output from :
**
** C:/Users/Gaurav/Project_03/Beam.ansa
**
*HEADING

**
**
**
*NODE
10000001,       0.9398853447281109,      -0.2169916165740941,                     -0.5
10000002,        1.129878782088899,      -0.2238190507167469,                     -0.5
10000003,        0.940467892654754,     -0.07245011326756157,                     -0.5
10000004,       1.3192184825355353,     -0.24243116623928485,                     -0.5
10000005,       1.1319606870492818,     -0.07776074262119653,                     -0.5
10000006,       0.9404556992698868,      0.07407170759268089,                     -0.5
10000007,       1.1319072271468744,      0.07853402264264753,                     -0.5
10000008,        0.939866717595787,      0.21827136841081696,                     -0.5
10000009,       1.1298250325596657,      0.22440064685367178,                     -0.5
10000010,       1.3190936342812205,      0.24222108600994474,                     -0.5
10000011,        1.326969754833793,     -0.10023119428610838,                     -0.5
10000012,       0.7500000000000009,     -0.21473021576667206,                     -0.5
10000013,       0.9387776842835279,                     -0.5,                     -0.5
10000014,        1.127092101589291,                     -0.5,                     -0.5
10000015,       0.7500000000000009,     -0.07098535094069508,                     -0.5
10000016,       1.3143340755614188,                     -0.5,                     -0.5
10000017,       0.7500000000000009,      0.07320036034665711,                     -0.5
10000018,       1.5000050879538303,      -0.2848524245936967,      -0.5000000000000001
10000019,        1.326695429346339,      0.09978711534043372,                     -0.5
10000020,       0.7500000000000008,       0.2164963475705589,                     -0.5
** ... 932 like lines cut
**
** SOLID ELEMENTS
**
*ELEMENT, TYPE=C3D8, ELSET=BEAM_SOLID_SECTION
10000001, 10000003, 10000015, 10000012, 10000001, 10000900, 10000890, 10000914, 10000896
10000002, 10000412, 10000470, 10000474, 10000450, 10000273, 10000333, 10000337, 10000312
10000003, 10000273, 10000333, 10000337, 10000312, 10000120, 10000190, 10000194, 10000170
10000004, 10000061, 10000058, 10000062, 10000066, 10000882, 10000822, 10000860, 10000857
10000005, 10000090, 10000097, 10000089, 10000086, 10000849, 10000851, 10000848, 10000833
10000006, 10000356, 10000346, 10000370, 10000352, 10000212, 10000202, 10000227, 10000208
10000007, 10000001, 10000002, 10000005, 10000003, 10000896, 10000898, 10000906, 10000900
10000008, 10000549, 10000645, 10000679, 10000676, 10000413, 10000509, 10000543, 10000540
10000009, 10000413, 10000509, 10000543, 10000540, 10000274, 10000373, 10000407, 10000404
10000010, 10000274, 10000373, 10000407, 10000404, 10000132, 10000230, 10000268, 10000265
10000011, 10000337, 10000275, 10000314, 10000311, 10000194, 10000133, 10000172, 10000169
10000012, 10000352, 10000354, 10000362, 10000356, 10000208, 10000210, 10000219, 10000212
10000013, 10000006, 10000017, 10000015, 10000003, 10000905, 10000892, 10000890, 10000900
10000014, 10000062, 10000059, 10000063, 10000068, 10000860, 10000919, 10000859, 10000853
10000015, 10000374, 10000404, 10000376, 10000345, 10000231, 10000265, 10000235, 10000201
10000016, 10000303, 10000305, 10000302, 10000287, 10000161, 10000163, 10000159, 10000144
10000017, 10000123, 10000091, 10000090, 10000087, 10000837, 10000887, 10000849, 10000950
10000018, 10000361, 10000348, 10000346, 10000356, 10000218, 10000204, 10000202, 10000212
10000019, 10000011, 10000005, 10000002, 10000004, 10000915, 10000906, 10000898, 10000916
10000020, 10000837, 10000887, 10000849, 10000950, 10000701, 10000751, 10000713, 10000814
** ... 640 like lines cut
**
** 
**
**
** 
**
**
** SECTION DATA
**
*SOLID SECTION, ELSET=BEAM_SOLID_SECTION, MATERIAL=Al
**
** MATERIALS
**
**
**Al
**
*MATERIAL, NAME=Al
*DENSITY
                 7.85E-9,
*ELASTIC, TYPE=ISOTROPIC
                  6.9E10,                     0.34
**
** 
**
**
** SURFACE DEFINITIONS 
**
*SURFACE, NAME=Fix_Surface, TYPE=ELEMENT
10000002, S3
10000003, S3
10000032, S3
10000033, S3
10000034, S3
10000035, S3
10000050, S3
10000051, S3
10000325, S3
10000326, S3
10000327, S3
10000328, S3
10000329, S3
10000330, S3
10000331, S3
10000332, S3
10000333, S3
10000334, S3
10000335, S3
10000336, S3
** ... 22 like lines cut
** 
** SETS
** 
