**  file created by  A N S A  Mon Apr 20 02:10:29 2015
** 
**  output from :
** 
**  C:/Users/Gaurav/Project_03/Beam_Fine_1st_Order.ansa
** 
*Heading
** Job name: Linear_Fine Model name: Linear_Fine
** Generated by: Abaqus/CAE 6.13-1
*Preprint, echo=NO, model=NO, history=NO, contact=NO
**
** PARTS
**
*Part, name=PART-1
*Node
10000001,   1.34104145,  0.244213328,          0.5
10000002,   1.35908854,  -0.14192833,          0.5
10000003,   1.42408836, -0.184951052,          0.5
10000004,   1.31553292, -0.0772878751,          0.5
10000005,   1.41716421,         -0.5,          0.5
10000006,   1.33376873,         -0.5,          0.5
10000007,   1.25037313,         -0.5,          0.5
10000008,   1.16697764,         -0.5,          0.5
10000009,   1.08358216,         -0.5,          0.5
10000010,   1.00018656,         -0.5,          0.5
10000011,  0.916791081,         -0.5,          0.5
10000012,  0.833395541,         -0.5,          0.5
10000013,   1.42136383, -0.257907838,          0.5
10000014,   1.23490477, -0.0794471353,          0.5
10000015,   1.34160542, -0.245371625,          0.5
10000016,   1.41914737, -0.336972475,          0.5
10000017,   1.25026202, -0.158337012,          0.5
10000018,   1.15229142, -0.0813812315,          0.5
10000019,   1.33669841,    -0.332672,          0.5
10000020,   1.25192487, -0.245574117,          0.5
** ... 5172 like lines cut
*Element, type=C3D8
10000001,10002361,10002363,10002397,10002396,10004249,10004251,10004285,10004284
10000002,10004899,10004897,10004863,10004864,10002361,10002363,10002397,10002396
10000003,10002396,10002392,10004719,10002361,10004284,10004280,10004247,10004249
10000004,10004864,10004868,10004901,10004899,10002396,10002392,10004719,10002361
10000005,10002362,10002534,10002405,10002365,10004250,10004422,10004293,10004253
10000006,10004898,10004726,10004855,10004895,10002362,10002534,10002405,10002365
10000007,10002393,10002362,10004720,10002387,10004281,10004250,10004248,10004275
10000008,10004867,10004898,10004900,10004873,10002393,10002362,10004720,10002387
10000009,10004442,10004429,10004430,10004440,10003970,10003957,10003958,10003968
10000010,10004726,10004898,10004867,10004862,10002534,10002362,10002393,10002398
10000011,10002401,10002397,10002363,10002364,10004289,10004285,10004251,10004252
10000012,10004859,10004863,10004897,10004896,10002401,10002397,10002363,10002364
10000013,10002364,10002366,10002403,10002401,10004252,10004254,10004291,10004289
10000014,10004896,10004894,10004857,10004859,10002364,10002366,10002403,10002401
10000015,10002405,10002367,10002537,10002365,10004293,10004255,10004425,10004253
10000016,10004855,10004893,10004723,10004895,10002405,10002367,10002537,10002365
10000017,10002403,10002366,10002368,10002406,10004291,10004254,10004256,10004294
10000018,10004857,10004894,10004892,10004854,10002403,10002366,10002368,10002406
10000019,10003918,10003922,10003893,10003891,10003446,10003450,10003421,10003419
10000020,10004891,10004893,10004855,10004853,10002369,10002367,10002405,10002407
** ... 4140 like lines cut
*Elset, elset=SOLID_SECTION, generate
10000001, 10004160,       1
** Section: Section-1
*Solid Section, elset=SOLID_SECTION, material=Al
,
*End Part
**  
**
** ASSEMBLY
**
*Assembly, name=Assembly
**  
*Instance, name=PART-1-1, part=PART-1
*End Instance
**  
*Nset, nset=FIXED_SUPPORT, instance=PART-1-1
10000405,10000877,10001349,10001821,10002293,10002472,10002944,10003416,10003888,10004360,10004788
*Nset, nset=ROLLER_SUPPORT, instance=PART-1-1
10000061,10000063,10000065,10000067,10000069,10000071,10000073,10000075,10000077,10000078,10000080,10000397,10000533,10000535,10000537,10000539
10000541,10000543,10000545,10000547,10000549,10000550,10000552,10000869,10001005,10001007,10001009,10001011,10001013,10001015,10001017,10001019
10001021,10001022,10001024,10001341,10001477,10001479,10001481,10001483,10001485,10001487,10001489,10001491,10001493,10001494,10001496,10001813
10001949,10001951,10001953,10001955,10001957,10001959,10001961,10001963,10001965,10001966,10001968,10002285,10002464,10002600,10002602,10002604
10002606,10002608,10002610,10002612,10002614,10002616,10002617,10002619,10002936,10003072,10003074,10003076,10003078,10003080,10003082,10003084
10003086,10003088,10003089,10003091,10003408,10003544,10003546,10003548,10003550,10003552,10003554,10003556,10003558,10003560,10003561,10003563
10003880,10004016,10004018,10004020,10004022,10004024,10004026,10004028,10004030,10004032,10004033,10004035,10004352,10004488,10004490,10004492
10004494,10004496,10004498,10004500,10004502,10004504,10004505,10004507,10004796,10005113,10005115,10005116,10005118,10005120,10005122,10005124
10005126,10005128,10005130,10005132
*Elset, elset=_Traction_Surface_S3, internal, instance=PART-1-1
10000069,10000101,10000206,10000282,10000421,10000460,10000763,10000776,10001077,10001147
*Elset, elset=_Traction_Surface_S4, internal, instance=PART-1-1
10000071,10000077,10000081,10000092,10000094,10000105,10000107,10000113,10000176,10000200,10000212,10000223,10000224,10000246,10000252,10000262
10000268,10000290,10000292,10000294,10000342,10000352,10000403,10000417,10000440,10000445,10000451,10000455,10000456,10000764,10000767,10000769
10000771,10000772,10000778,10000779,10000780,10001039,10001083,10001106,10002202,10002332,10002661,10002673,10002955,10002975,10003077,10003089
10003165,10003187
*Elset, elset=_Traction_Surface_S5, internal, instance=PART-1-1
10000067,10000097,10000204,10000209,10000210,10000274,10000433,10000762,10000774,10001048,10002195,10002302,10002316,10002339,10002344,10002350
10002354,10002355,10002663,10002666,10002668,10002670,10002671,10002677,10002678,10002679,10002958,10002961,10002963,10002965,10002966,10002982
10003003,10003005,10003079,10003082,10003084,10003086,10003087,10003093,10003094,10003095,10003167,10003170,10003172,10003174,10003176,10003219
10003220,10003221
*Elset, elset=_Traction_Surface_S6, internal, instance=PART-1-1
10002320,10002359,10002662,10002675,10002957,10002978,10003078,10003091,10003166,10003217
*Surface, type=ELEMENT, name=Traction_Surface
_Traction_Surface_S3, S3
_Traction_Surface_S4, S4
_Traction_Surface_S6, S6
_Traction_Surface_S5, S5
*End Assembly
** 
** MATERIALS
** 
*Material, name=Al
*Elastic
 6.9e+10, 0.34
** ----------------------------------------------------------------
** 
** STEP: Loading
** 
*Step, name=Loading, nlgeom=YES
*Static
0.01, 1., 1e-05, 0.1
** 
** BOUNDARY CONDITIONS
** 
** Name: Fixed_Support Type: Displacement/Rotation
*Boundary
FIXED_SUPPORT, 1, 1
FIXED_SUPPORT, 2, 2
FIXED_SUPPORT, 3, 3
FIXED_SUPPORT, 4, 4
FIXED_SUPPORT, 5, 5
FIXED_SUPPORT, 6, 6
** Name: Roller_Support Type: Displacement/Rotation
*Boundary
ROLLER_SUPPORT, 1, 1
ROLLER_SUPPORT, 3, 3
ROLLER_SUPPORT, 4, 4
ROLLER_SUPPORT, 5, 5
ROLLER_SUPPORT, 6, 6
** 
** LOADS
** 
** Name: Traction   Type: Pressure Using Field: Traction_Variation
*Dload
PART-1-1.10000069, P3, -7.5e+07
PART-1-1.10000101, P3, 4.16667e+07
PART-1-1.10000206, P3, -7.5e+07
PART-1-1.10000282, P3, 4.16667e+07
PART-1-1.10000421, P3, 4.16667e+07
PART-1-1.10000460, P3, -7.5e+07
PART-1-1.10000763, P3, -7.5e+07
PART-1-1.10000776, P3, 4.16667e+07
PART-1-1.10001077, P3, 4.16667e+07
PART-1-1.10001147, P3, -7.5e+07
PART-1-1.10000071, P4, -5.83333e+07
PART-1-1.10000077, P4, -4.16667e+07
PART-1-1.10000081, P4, -2.5e+07
PART-1-1.10000092, P4, -8.33333e+06
PART-1-1.10000094, P4, 8.33333e+06
PART-1-1.10000105, P4, 5.83333e+07
PART-1-1.10000107, P4, 7.5e+07
PART-1-1.10000113, P4, 9.16667e+07
PART-1-1.10000176, P4, -5.83333e+07
PART-1-1.10000200, P4, -4.16667e+07
** ... 100 like lines cut
** 
** OUTPUT REQUESTS
** 
*Restart, write, frequency=0
** 
** FIELD OUTPUT: F-Output-1
** 
*Output, field
*Node Output
RF, U
*Element Output, directions=YES
E, S
** 
** HISTORY OUTPUT: H-Output-1
** 
*Output, history, variable=PRESELECT
*End Step
