**  file created by  A N S A  Mon Apr 20 02:16:12 2015
** 
**  output from :
** 
**  C:/Users/Gaurav/Project_03/Beam_Fine_2nd_Order.ansa
** 
*Heading
** Job name: Quadratic_Fine Model name: Beam_Fine_2nd_Order - Copy
** Generated by: Abaqus/CAE 6.13-1
*Preprint, echo=NO, model=NO, history=NO, contact=NO
**
** PARTS
**
*Part, name=Beam_Solid
*Node
20000001,   1.57698286,  0.220618352,           0.
20000002,    1.5387975,  0.260328323,           0.
20000003,  0.833376765, -0.374861002,  0.300000012
20000004,    1.7206192, 0.0775595084,           0.
20000005,  0.833392799, -0.416567236,  0.300000012
20000006,    1.7606914,   0.03936252,           0.
20000007,   1.57823527,  0.257364392,           0.
20000008,   0.83339417, -0.458283633,  0.300000012
20000009,   1.64933515,  0.193408445,           0.
20000010,   1.75756729,   0.07872504,           0.
20000011,   1.61783254,  0.251244694,           0.
20000012,   1.57934082,  0.297013521,           0.
20000013,   0.79169637, -0.416616946,  0.300000012
20000014,   1.53990293,  0.337715358,           0.
20000015,         2.25,  0.458333343,  0.300000012
20000016,   1.75137711,  0.118224189,           0.
20000017,     1.797369, 0.0797641352,           0.
20000018,   1.83835685, 0.0404016152,           0.
20000019,   1.65742981,  0.245125011,           0.
20000020,   1.58044624,   0.33666265,           0.
** ... 19660 like lines cut
*Element, type=C3D20
20000001,20019609,20019533,20019604,20000276,20011537,20011284,20011444,20011640,20000284,20000587,20000275,20000274,20011164,20011125,20011639,
         20011638,20018978,20018979,20018980,20018981
20000002,20011537,20011284,20011444,20011640,20014706,20014453,20014613,20014809,20011164,20011125,20011639,20011638,20014333,20014294,20014808,
         20014807,20018982,20018983,20018984,20018985
20000003,20014706,20014453,20014613,20014809,20016066,20015813,20015973,20016169,20014333,20014294,20014808,20014807,20015693,20015654,20016168,
         20016167,20018986,20018987,20018988,20018989
20000004,20016066,20015813,20015973,20016169,20017426,20017173,20017333,20017529,20015693,20015654,20016168,20016167,20017053,20017014,20017528,
         20017527,20018990,20018991,20018992,20018993
20000005,20017426,20017173,20017333,20017529,20018786,20018533,20018693,20018889,20017053,20017014,20017528,20017527,20018413,20018374,20018888,
         20018887,20018994,20018995,20018996,20018997
20000006,20000276,20000281,20019610,20019609,20011640,20011645,20011538,20011537,20000280,20000277,20000285,20000274,20011644,20011641,20011163,
         20011638,20018981,20018998,20018999,20018978
20000007,20011640,20011645,20011538,20011537,20014809,20014814,20014707,20014706,20011644,20011641,20011163,20011638,20014813,20014810,20014332,
         20014807,20018985,20019000,20019001,20018982
20000008,20014809,20014814,20014707,20014706,20016169,20016174,20016067,20016066,20014813,20014810,20014332,20014807,20016173,20016170,20015692,
         20016167,20018989,20019002,20019003,20018986
20000009,20016169,20016174,20016067,20016066,20017529,20017534,20017427,20017426,20016173,20016170,20015692,20016167,20017533,20017530,20017052,
         20017527,20018993,20019004,20019005,20018990
20000010,20017529,20017534,20017427,20017426,20018889,20018894,20018787,20018786,20017533,20017530,20017052,20017527,20018893,20018890,20018412,
         20018887,20018997,20019006,20019007,20018994
** ... 8300 like lines cut
*Elset, elset=Set-1, generate
20000001, 20004160,       1
** Section: Section-1
*Solid Section, elset=Set-1, material=Al
,
*End Part
**  
**
** ASSEMBLY
**
*Assembly, name=Assembly
**  
*Instance, name=PART-1-1, part=Beam_Solid
*End Instance
**  
*Nset, nset=FIXED_SUPPORT, instance=PART-1-1
20001355,20002715,20003981,20006254,20007614,20008660,20008664,20008668,20008672,20008676,20011334,20011863,20011867,20011871,20011875,20011879
20014503,20015863,20017223,20018583,20019559
*Nset, nset=ROLLER_SUPPORT, instance=PART-1-1
20000598,20000600,20000601,20000603,20000605,20000607,20000609,20000611,20000613,20000615,20000616,20000617,20001349,20001839,20001841,20001842
20001844,20001846,20001848,20001850,20001852,20001854,20001856,20001857,20001858,20002381,20002383,20002385,20002387,20002389,20002391,20002393
20002395,20002397,20002398,20002400,20002709,20003199,20003201,20003202,20003204,20003206,20003208,20003210,20003212,20003214,20003216,20003217
20003218,20003741,20003743,20003745,20003747,20003749,20003751,20003753,20003755,20003757,20003758,20003760,20003987,20004645,20004646,20004647
20004649,20004651,20004653,20004655,20004657,20004659,20004661,20004662,20004664,20005209,20005211,20005212,20005214,20005216,20005218,20005220
20005222,20005224,20005226,20005228,20005751,20005752,20005753,20005755,20005757,20005759,20005761,20005763,20005765,20005767,20005768,20005770
20006260,20006569,20006571,20006572,20006574,20006576,20006578,20006580,20006582,20006584,20006586,20006588,20007111,20007112,20007113,20007115
20007117,20007119,20007121,20007123,20007125,20007127,20007128,20007130,20007620,20007929,20007931,20007932,20007934,20007936,20007938,20007940
20007942,20007944,20007946,20007948,20008661,20008665,20008669,20008673,20008677,20008690,20008692,20008694,20008696,20008698,20008699,20008701
20008703,20008705,20008707,20008724,20008726,20008728,20008730,20008732,20008755,20008757,20008759,20008761,20008763,20008789,20008791,20008793
20008795,20008797,20008829,20008831,20008833,20008835,20008837,20008880,20008882,20008884,20008886,20008888,20008924,20008926,20008928,20008930
20008932,20008979,20008981,20008983,20008985,20008987,20009029,20009031,20009033,20009035,20009037,20009079,20009081,20009083,20009085,20009087
20010831,20010832,20010833,20010835,20010837,20010839,20010841,20010843,20010845,20010847,20010848,20010850,20011340,20011649,20011651,20011652
20011654,20011656,20011658,20011660,20011662,20011664,20011666,20011668,20011864,20011868,20011872,20011876,20011880,20011893,20011895,20011897
20011899,20011901,20011902,20011904,20011906,20011908,20011910,20011927,20011929,20011931,20011933,20011935,20011958,20011960,20011962,20011964
20011966,20011992,20011994,20011996,20011998,20012000,20012032,20012034,20012036,20012038,20012040,20012083,20012085,20012087,20012089,20012091
20012127,20012129,20012131,20012133,20012135,20012182,20012184,20012186,20012188,20012190,20012232,20012234,20012236,20012238,20012240,20012282
20012284,20012286,20012288,20012290,20014000,20014001,20014002,20014004,20014006,20014008,20014010,20014012,20014014,20014016,20014017,20014019
20014509,20014818,20014820,20014821,20014823,20014825,20014827,20014829,20014831,20014833,20014835,20014837,20015360,20015361,20015362,20015364
20015366,20015368,20015370,20015372,20015374,20015376,20015377,20015379,20015869,20016178,20016180,20016181,20016183,20016185,20016187,20016189
** ... 4 like lines cut
*Elset, elset=_Traction_Surface_S3, internal, instance=PART-1-1
20000341,20000342,20000343,20000344,20000345,20000526,20000527,20000528,20000529,20000530
*Elset, elset=_Traction_Surface_S4, internal, instance=PART-1-1
20000181,20000182,20000183,20000184,20000185,20000236,20000237,20000238,20000239,20000240,20000291,20000292,20000293,20000294,20000295,20000411
20000412,20000413,20000414,20000415,20000446,20000447,20000448,20000449,20000450,20000481,20000482,20000483,20000484,20000485,20000496,20000497
20000498,20000499,20000500,20000521,20000522,20000523,20000524,20000525,20002476,20002477,20002478,20002479,20002480,20002616,20002617,20002618
20002619,20002620
*Elset, elset=_Traction_Surface_S5, internal, instance=PART-1-1
20000396,20000397,20000398,20000399,20000400,20000536,20000537,20000538,20000539,20000540,20002261,20002262,20002263,20002264,20002265,20002316
20002317,20002318,20002319,20002320,20002371,20002372,20002373,20002374,20002375,20002491,20002492,20002493,20002494,20002495,20002526,20002527
20002528,20002529,20002530,20002561,20002562,20002563,20002564,20002565,20002576,20002577,20002578,20002579,20002580,20002601,20002602,20002603
20002604,20002605
*Elset, elset=_Traction_Surface_S6, internal, instance=PART-1-1
20002421,20002422,20002423,20002424,20002425,20002606,20002607,20002608,20002609,20002610
*Surface, type=ELEMENT, name=Traction_Surface
_Traction_Surface_S3, S3
_Traction_Surface_S4, S4
_Traction_Surface_S6, S6
_Traction_Surface_S5, S5
*End Assembly
** 
** MATERIALS
** 
*Material, name=Al
*Elastic
 6.9e+10, 0.34
** ----------------------------------------------------------------
** 
** STEP: Loading
** 
*Step, name=Loading, nlgeom=YES
*Static
0.001, 1., 1e-05, 0.1
** 
** BOUNDARY CONDITIONS
** 
** Name: Fixed_Support Type: Displacement/Rotation
*Boundary
FIXED_SUPPORT, 1, 1
FIXED_SUPPORT, 2, 2
FIXED_SUPPORT, 3, 3
FIXED_SUPPORT, 4, 4
FIXED_SUPPORT, 5, 5
FIXED_SUPPORT, 6, 6
** Name: Roller_Support Type: Displacement/Rotation
*Boundary
ROLLER_SUPPORT, 1, 1
ROLLER_SUPPORT, 3, 3
ROLLER_SUPPORT, 4, 4
ROLLER_SUPPORT, 5, 5
ROLLER_SUPPORT, 6, 6
** 
** LOADS
** 
** Name: Normal_Traction   Type: Pressure Using Field: Traction_Load
*Dload
PART-1-1.20000341, P3, 4.16667e+07
PART-1-1.20000342, P3, 4.16667e+07
PART-1-1.20000343, P3, 4.16667e+07
PART-1-1.20000344, P3, 4.16667e+07
PART-1-1.20000345, P3, 4.16667e+07
PART-1-1.20000526, P3, -7.5e+07
PART-1-1.20000527, P3, -7.5e+07
PART-1-1.20000528, P3, -7.5e+07
PART-1-1.20000529, P3, -7.5e+07
PART-1-1.20000530, P3, -7.5e+07
PART-1-1.20000181, P4, 9.16667e+07
PART-1-1.20000182, P4, 9.16667e+07
PART-1-1.20000183, P4, 9.16667e+07
PART-1-1.20000184, P4, 9.16667e+07
PART-1-1.20000185, P4, 9.16667e+07
PART-1-1.20000236, P4, 7.5e+07
PART-1-1.20000237, P4, 7.5e+07
PART-1-1.20000238, P4, 7.5e+07
PART-1-1.20000239, P4, 7.5e+07
PART-1-1.20000240, P4, 7.5e+07
** ... 100 like lines cut
** 
** OUTPUT REQUESTS
** 
*Restart, write, frequency=0
** 
** FIELD OUTPUT: F-Output-1
** 
*Output, field
*Node Output
RF, U
*Element Output, directions=YES
E, S
** 
** HISTORY OUTPUT: H-Output-1
** 
*Output, history, variable=PRESELECT
*End Step
