**  file created by  A N S A  Fri Apr 17 02:58:22 2015
** 
**  output from :
** 
**  C:/Users/Gaurav/Project_02/Geometry.ansa
** 
*Heading
** Job name: Coarse Model name: Geometry_Coarse
** Generated by: Abaqus/CAE Student Edition 6.14-2
*Preprint, echo=NO, model=NO, history=NO, contact=NO
**
** PARTS
**
*Part, name=PART-1
*Node
      1,   0.28490895,  0.148887157
      2,  0.135800973,   0.30930531
      3,   0.41190055,  0.147438765
      4,  0.270662576,  0.305336386
      5,  0.131571099,   0.45436269
      6,  0.534822345,  0.144323811
      7,  0.400638342,  0.295503318
      8,  0.262239516,  0.447593927
      9,  0.129582688,  0.592843771
     10,  0.652551889,   0.14283745
     11,  0.526787341,  0.288652241
     12,   0.39336583,  0.438054889
     13,  0.259171844,   0.58568722
     14,  0.128057301,  0.728562415
     15,  0.768367827,  0.142845556
     16,  0.647960663,  0.285679549
     17,  0.524492204,  0.428515822
     18,  0.388767511,  0.578530252
     19,  0.256114572,   0.72379148
     20,  0.126528651,  0.864281178
** ... 234 like lines cut
*Element, type=DC2D4
  1,     47,1000062,     49,      1
  2,      2,     42,1000181,     47
  3,      3,      1,     49,     50
  4,     47,      1,      4,      2
  5,      5,     43,     42,      2
  6,     50,     52,      6,      3
  7,      7,      4,      1,      3
  8,      2,      4,      8,      5
  9,      9,     44,     43,      5
 10,     10,      6,     52,     55
 11,      3,      6,     11,      7
 12,     12,      8,      4,      7
 13,      5,      8,     13,      9
 14,     14,     45,     44,      9
 15,     55,     57,     15,     10
 16,     16,     11,      6,     10
 17,      7,     11,     17,     12
 18,     18,     13,      8,     12
 19,      9,     13,     19,     14
 20,     20,     46,     45,     14
** ... 200 like lines cut
*Elset, elset=PLATE
   1,   2,   3,   4,   5,   6,   7,   8,   9,  10,  11,  12,  13,  14,  15,  16
  17,  18,  19,  20,  21,  22,  23,  24,  25,  26,  27,  28,  29,  30,  31,  32
  33,  34,  35,  36,  37,  38,  39,  40,  41,  42,  43,  44,  45,  46,  47,  48
  49,  50,  51,  52,  53,  54,  55,  56,  57,  58,  59,  60,  61,  62,  63,  64
  65,  66,  67,  68,  69,  70,  71,  72,  73,  74,  75,  76,  77,  78,  79,  80
  81,  82,  83,  84,  85,  86,  87,  88,  89,  90,  91,  92,  93,  94,  95,  96
  97,  98,  99, 100, 101, 102, 103, 104, 105, 106, 107, 108, 109, 110, 111, 112
 113, 114, 115, 116, 117, 118, 119, 120, 121, 122, 123, 124, 125, 126, 127, 128
 129, 130, 131, 132, 133, 134, 135, 136, 137, 138, 139, 140, 141, 142, 143, 144
 145, 146, 147, 148, 149, 150, 151, 152, 153, 154, 155, 156, 157, 158, 159, 160
 161, 162, 163, 164, 165, 166, 167, 168, 169, 170, 171, 172, 183, 184, 185, 186
 187, 188, 189, 190, 191, 192, 193, 194, 195, 196, 197, 198, 199, 200, 201, 202
 203, 204, 205, 206, 207, 208, 209, 210, 211, 212, 213, 214, 215, 216, 217, 218
 219, 220, 221, 222, 223, 224, 225, 226, 227, 228, 229, 230
** Section: Section-1-PLATE
*Solid Section, elset=PLATE, material=MAT_01
1.,
*End Part
**  
**
** ASSEMBLY
**
*Assembly, name=Assembly
**  
*Instance, name=PART-1-1, part=PART-1
*End Instance
**  
*Nset, nset=BOUNDARY_NODES, instance=PART-1-1
     60,     61,     62,     63,     64,     65,     66,     67,     68,     69,     70,     71,     72,    118,    119,    120
    121,    122,    123,    124,    125,    126,    127,    128,    129,    130,    190,    191,    192,    193,    194,    196
    198,    199,    200,    201,    202,    203,    204,    250,    251,    252,    253,    254,    255,    257,    258,    260
    261,    262,    263,    264,1000076,1000093,1000165,1000174,1000245,1000254,1000319,1000320
*Elset, elset=_Surf-1_S1, internal, instance=PART-1-1
   1, 115, 152, 196
*Elset, elset=_Surf-1_S3, internal, instance=PART-1-1
   2, 114, 138, 210
*Surface, type=ELEMENT, name=Surf-1
_Surf-1_S1, S1
_Surf-1_S3, S3
*End Assembly
** 
** MATERIALS
** 
** 
** Mat_01
** 
*Material, name=MAT_01
*Conductivity
54.,
** ----------------------------------------------------------------
** 
** STEP: Step-1
** 
*Step, name=Step-1, nlgeom=NO
*Heat Transfer, steady state, deltmx=0.
0.1, 1., 1e-05, 0.2, 
** 
** BOUNDARY CONDITIONS
** 
** Name: BC-1 Type: Temperature
*Boundary
BOUNDARY_NODES, 11, 11
** 
** LOADS
** 
** Name: Flux   Type: Surface heat flux Using Field: Flux
*Dflux
PART-1-1.1, S1, 182.794
PART-1-1.115, S1, 182.794
PART-1-1.152, S1, 182.794
PART-1-1.196, S1, 182.794
PART-1-1.2, S3, 182.794
PART-1-1.114, S3, 182.794
PART-1-1.138, S3, 182.794
PART-1-1.210, S3, 182.794
** Name: Source   Type: Body heat flux Using Field: Source
*Dflux
PART-1-1.1, BF, 2094.59
PART-1-1.2, BF, 2089.45
PART-1-1.3, BF, 2014.17
PART-1-1.4, BF, 2057.91
PART-1-1.5, BF, 1990.13
PART-1-1.6, BF, 1905.9
PART-1-1.7, BF, 1979.33
PART-1-1.8, BF, 1961.52
PART-1-1.9, BF, 1853.78
PART-1-1.10, BF, 1769.71
PART-1-1.11, BF, 1871.12
PART-1-1.12, BF, 1892.
PART-1-1.13, BF, 1826.49
PART-1-1.14, BF, 1679.8
PART-1-1.15, BF, 1606.42
PART-1-1.16, BF, 1733.28
PART-1-1.17, BF, 1788.1
PART-1-1.18, BF, 1761.67
PART-1-1.19, BF, 1652.47
PART-1-1.20, BF, 1467.51
** ... 200 like lines cut
** 
** OUTPUT REQUESTS
** 
*Restart, write, frequency=0
** 
** FIELD OUTPUT: F-Output-1
** 
*Output, field
*Node Output
NT, 
*Element Output, directions=YES
HFL, TEMP
*Output, history, frequency=0
*End Step
