**  file created by  A N S A  Fri Apr 17 03:00:51 2015
** 
**  output from :
** 
**  C:/Users/Gaurav/Project_02/Geometry.ansa
** 
*Heading
** Job name: Fine Model name: Geometry_Fine
** Generated by: Abaqus/CAE Student Edition 6.14-2
*Preprint, echo=NO, model=NO, history=NO, contact=NO
**
** PARTS
**
*Part, name=PART-1
*Node
      1, -0.0578222014,  -0.23811838
      2,  0.116822213,  0.224222973
      3,   0.25548318, 0.0633724183
      4, 0.0609168671,  0.291994661
      5,  0.180145413,   0.20592612
      6,  0.248488083,  0.129270613
      7,  0.123082839,  0.284407914
      8, 0.0630094856,   0.35027048
      9,  0.323413491, 0.0653973594
     10,   0.25183782,  0.201547042
     11,  0.187898219,  0.275546491
     12,  0.126865625,  0.346135706
     13, 0.0643344969,  0.411352515
     14,   0.39190048, 0.0661777183
     15,  0.321638554,  0.132047459
     16,  0.192188948,  0.341404825
     17,  0.129182473,   0.40904066
     18, 0.0651677176,  0.474249125
     19,  0.460279197,  0.066465877
     20,  0.322602689,  0.200569853
** ... 926 like lines cut
*Element, type=DC2D4
  1,    191,1000062,    192,      3
  2,    193,    934,    823,      4
  5,    195,      5,      2,    196
  6,    191,      3,      6,    195
  7,      4,    823,      2,      7
  8,      3,    192,    197,      9
  9,      8,    198,    193,      4
 10,    566,1000261,    486,      1
 11,      5,    195,      6,     10
 12,      7,      2,      5,     11
 13,      9,     15,      6,      3
 14,      4,      7,     12,      8
 15,     13,    199,    198,      8
 16,      9,    197,    200,     14
 17,     10,     22,     11,      5
 18,     10,      6,     15,     20
 19,     16,     12,      7,     11
 20,      8,     12,     17,     13
 21,    201,    199,     13,     18
 22,     19,     14,    200,    202
** ... 856 like lines cut
*Elset, elset=PLATE
   1,   2,   5,   6,   7,   8,   9,  10,  11,  12,  13,  14,  15,  16,  17,  18
  19,  20,  21,  22,  23,  24,  25,  26,  27,  28,  29,  30,  31,  32,  33,  34
  35,  36,  37,  38,  39,  40,  41,  42,  43,  44,  45,  46,  47,  48,  49,  50
  51,  52,  53,  54,  55,  56,  57,  58,  59,  60,  61,  62,  63,  64,  65,  66
  67,  68,  69,  70,  71,  72,  73,  74,  75,  76,  77,  78,  79,  80,  81,  82
  83,  84,  85,  86,  87,  88,  89,  90,  91,  92,  93,  94,  95,  96,  97,  98
  99, 100, 101, 102, 103, 104, 105, 106, 107, 108, 109, 110, 111, 112, 113, 114
 115, 116, 117, 118, 119, 120, 121, 122, 123, 124, 125, 126, 127, 128, 129, 130
 131, 132, 133, 134, 135, 136, 137, 138, 139, 140, 141, 142, 143, 144, 145, 146
 147, 148, 149, 150, 151, 152, 153, 154, 155, 156, 157, 158, 159, 160, 161, 162
 163, 164, 165, 166, 167, 168, 169, 170, 171, 172, 173, 174, 175, 176, 177, 178
 179, 180, 181, 182, 183, 184, 185, 186, 187, 188, 189, 190, 191, 192, 193, 194
 195, 196, 197, 198, 199, 200, 201, 202, 203, 204, 205, 206, 207, 208, 209, 210
 211, 212, 213, 214, 215, 216, 217, 218, 219, 220, 221, 222, 223, 224, 225, 226
 227, 228, 229, 230, 231, 232, 233, 234, 235, 236, 237, 238, 239, 240, 241, 242
 243, 244, 245, 246, 247, 248, 249, 250, 251, 252, 253, 254, 255, 256, 257, 258
 259, 260, 261, 262, 263, 264, 265, 266, 267, 268, 269, 270, 271, 272, 273, 274
 275, 276, 277, 278, 279, 280, 281, 282, 283, 284, 285, 286, 287, 288, 289, 290
 291, 292, 293, 294, 295, 296, 297, 298, 299, 300, 301, 302, 303, 304, 305, 306
 307, 308, 309, 310, 311, 312, 313, 314, 315, 316, 317, 318, 319, 320, 321, 322
** ... 35 like lines cut
** Section: Section-1-PLATE
*Solid Section, elset=PLATE, material=MAT_01
1.,
*End Part
**  
**
** ASSEMBLY
**
*Assembly, name=Assembly
**  
*Instance, name=PART-1-1, part=PART-1
*End Instance
**  
*Nset, nset=BOUNDARY_NODES, instance=PART-1-1
    217,    218,    219,    220,    221,    222,    223,    224,    225,    226,    227,    228,    229,    230,    231,    232
    233,    234,    235,    236,    237,    238,    239,    240,    241,    242,    243,    244,    435,    436,    437,    438
    439,    440,    441,    442,    443,    444,    445,    446,    447,    448,    449,    450,    451,    452,    453,    454
    455,    456,    457,    458,    459,    460,    461,    462,    679,    680,    681,    682,    683,    684,    685,    686
    687,    688,    689,    690,    692,    694,    695,    697,    699,    700,    701,    702,    703,    704,    705,    706
    707,    708,    709,    710,    901,    902,    903,    904,    905,    906,    907,    908,    909,    910,    911,    912
    914,    916,    918,    919,    921,    922,    923,    924,    925,    926,    927,    928,    929,    930,    931,    932
1000076,1000093,1000165,1000174,1000245,1000254,1000319,1000320
*Elset, elset=_Surf-1_S1, internal, instance=PART-1-1
   1, 439, 557, 570, 751, 764
*Elset, elset=_Surf-1_S2, internal, instance=PART-1-1
  10, 431, 881
*Elset, elset=_Surf-1_S3, internal, instance=PART-1-1
 518, 803
*Elset, elset=_Surf-1_S4, internal, instance=PART-1-1
   5,   6, 435, 438, 519, 531, 583, 738, 802
*Surface, type=ELEMENT, name=Surf-1
_Surf-1_S1, S1
_Surf-1_S2, S2
_Surf-1_S4, S4
_Surf-1_S3, S3
*End Assembly
** 
** MATERIALS
** 
** 
** Mat_01
** 
*Material, name=MAT_01
*Conductivity
54.,
** ----------------------------------------------------------------
** 
** STEP: Step-1
** 
*Step, name=Step-1, nlgeom=NO
*Heat Transfer, steady state, deltmx=0.
0.1, 1., 1e-05, 0.2, 
** 
** BOUNDARY CONDITIONS
** 
** Name: BC-1 Type: Temperature
*Boundary
BOUNDARY_NODES, 11, 11
** 
** LOADS
** 
** Name: Flux   Type: Surface heat flux Using Field: Flux
*Dflux
PART-1-1.1, S1, 210.868
PART-1-1.439, S1, 210.869
PART-1-1.557, S1, 204.584
PART-1-1.570, S1, 209.122
PART-1-1.751, S1, 209.136
PART-1-1.764, S1, 204.598
PART-1-1.10, S2, 211.684
PART-1-1.431, S2, 204.595
PART-1-1.881, S2, 211.692
PART-1-1.518, S3, 210.869
PART-1-1.803, S3, 210.868
PART-1-1.5, S4, 204.583
PART-1-1.6, S4, 207.391
PART-1-1.435, S4, 207.388
PART-1-1.438, S4, 209.126
PART-1-1.519, S4, 207.4
PART-1-1.531, S4, 209.128
PART-1-1.583, S4, 211.689
PART-1-1.738, S4, 211.692
PART-1-1.802, S4, 207.368
** Name: Source   Type: Body heat flux Using Field: Source
*Dflux
PART-1-1.1, BF, 2103.64
PART-1-1.2, BF, 2082.16
PART-1-1.5, BF, 2103.69
PART-1-1.6, BF, 2101.27
PART-1-1.7, BF, 2078.48
PART-1-1.8, BF, 2067.69
PART-1-1.9, BF, 2046.9
PART-1-1.10, BF, 2107.68
PART-1-1.11, BF, 2083.21
PART-1-1.12, BF, 2068.88
PART-1-1.13, BF, 2060.61
PART-1-1.14, BF, 2041.21
PART-1-1.15, BF, 2001.81
PART-1-1.16, BF, 2020.41
PART-1-1.17, BF, 2046.81
PART-1-1.18, BF, 2041.86
PART-1-1.19, BF, 2028.16
PART-1-1.20, BF, 1994.78
PART-1-1.21, BF, 1946.8
PART-1-1.22, BF, 1962.65
** ... 856 like lines cut
** 
** OUTPUT REQUESTS
** 
*Restart, write, frequency=0
** 
** FIELD OUTPUT: F-Output-1
** 
*Output, field
*Node Output
NT, 
*Element Output, directions=YES
HFL, TEMP
*Output, history, frequency=0
*End Step
