**  file created by  A N S A  Wed Apr 15 23:35:34 2015
** 
**  output from :
** 
**  C:/Users/Gaurav/Project_02/Geometry.ansa
** 
*Heading
** Job name: Linear Model name: Linear
** Generated by: Abaqus/CAE Student Edition 6.14-2
*Preprint, echo=NO, model=NO, history=NO, contact=NO
**
** PARTS
**
*Part, name=PART-1
*Node
1000001, -0.885629654,  0.125715658
1000002, -0.771072209,  0.125859648
1000003, -0.885947943,  0.251333594
1000004, -0.656089067,  0.126048297
1000005, -0.771782875,  0.251637071
1000006, -0.886397421,  0.376746118
1000007, -0.540305674,  0.126194626
1000008, -0.657375991,  0.252113074
1000009, -0.772769809,  0.377162188
1000010, -0.886871934,  0.501877785
1000011,  -0.42293635,   0.12593329
1000012, -0.542580962,  0.252828568
1000013, -0.659106791,  0.377836645
1000014, -0.773784339,  0.502320886
1000015, -0.887291789,  0.626713932
1000016, -0.301588356,  0.123782605
1000017, -0.427263975,  0.253961146
1000018, -0.545455754,  0.378896624
1000019, -0.660798609,  0.503028214
1000020, -0.774659276,  0.627104402
** ... 300 like lines cut
*Element, type=DC2D4
1000001,1000264,1000238,1000076,1000074
1000002,1000074,1000072,1000265,1000264
1000003,1000266,1000239,1000238,1000264
1000004,1000268,1000265,1000072,1000070
1000005,1000264,1000265,1000267,1000266
1000006,1000270,1000240,1000239,1000266
1000007,1000070,1000068,1000273,1000268
1000008,1000269,1000267,1000265,1000268
1000009,1000266,1000267,1000271,1000270
1000010,1000276,1000241,1000240,1000270
1000011,1000280,1000273,1000068,1000066
1000012,1000268,1000273,1000274,1000269
1000013,1000272,1000271,1000267,1000269
1000014,1000270,1000271,1000277,1000276
1000015,1000284,1000242,1000241,1000276
1000016,1000066,1000064,1000289,1000280
1000017,1000281,1000274,1000273,1000280
1000018,1000269,1000274,1000275,1000272
1000019,1000278,1000277,1000271,1000272
1000020,1000276,1000277,1000285,1000284
** ... 260 like lines cut
*Elset, elset=PLATE, generate
1000001, 1000280,       1
** Section: Section-1-PLATE
*Solid Section, elset=PLATE, material=MAT_01
,
*End Part
**  
**
** ASSEMBLY
**
*Assembly, name=Assembly
**  
*Instance, name=PART-1-1, part=PART-1
*End Instance
**  
*Nset, nset=BOUNDARY_NODES, instance=PART-1-1
1000055,1000056,1000057,1000058,1000059,1000060,1000061,1000076,1000078,1000079,1000080,1000081,1000082,1000083,1000084,1000085
1000086,1000087,1000088,1000089,1000090,1000091,1000092,1000093,1000094,1000095,1000096,1000097,1000098,1000099,1000100,1000101
1000158,1000159,1000160,1000161,1000162,1000163,1000164,1000165,1000166,1000167,1000168,1000169,1000170,1000171,1000172,1000173
1000174,1000238,1000239,1000240,1000241,1000242,1000243,1000244,1000245,1000246,1000247,1000248,1000249,1000250,1000251,1000252
1000253,1000254,1000319,1000320
*Elset, elset=_Flux_Area_S1, internal, instance=PART-1-1
1000047,1000257
*Elset, elset=_Flux_Area_S2, internal, instance=PART-1-1
1000092,1000109,1000162,1000179
*Elset, elset=_Flux_Area_S3, internal, instance=PART-1-1
1000022,1000039,1000232,1000249
*Elset, elset=_Flux_Area_S4, internal, instance=PART-1-1
1000117,1000187
*Surface, type=ELEMENT, name=Flux_Area
_Flux_Area_S1, S1
_Flux_Area_S2, S2
_Flux_Area_S4, S4
_Flux_Area_S3, S3
*End Assembly
** 
** MATERIALS
** 
** 
** Mat_01
** 
*Material, name=MAT_01
*Conductivity
54.,
** ----------------------------------------------------------------
** 
** STEP: Linear_HT
** 
*Step, name=Linear_HT, nlgeom=NO
*Heat Transfer, steady state, deltmx=0.
0.1, 1., 1e-05, 0.2, 
** 
** BOUNDARY CONDITIONS
** 
** Name: Boundary Type: Temperature
*Boundary
BOUNDARY_NODES, 11, 11
** 
** LOADS
** 
** Name: Heat_Flux   Type: Surface heat flux Using Field: Flux_Field
*Dflux
PART-1-1.1000047, S1, 205.451
PART-1-1.1000257, S1, 205.451
PART-1-1.1000092, S2, 196.006
PART-1-1.1000109, S2, 196.991
PART-1-1.1000162, S2, 196.006
PART-1-1.1000179, S2, 196.991
PART-1-1.1000022, S3, 196.006
PART-1-1.1000039, S3, 196.991
PART-1-1.1000232, S3, 196.006
PART-1-1.1000249, S3, 196.991
PART-1-1.1000117, S4, 205.451
PART-1-1.1000187, S4, 205.451
** Name: Source   Type: Body heat flux Using Field: Source_Field
*Dflux
PART-1-1.1000001, BF, 1195.75
PART-1-1.1000002, BF, 1414.76
PART-1-1.1000003, BF, 1161.41
PART-1-1.1000004, BF, 1605.96
PART-1-1.1000005, BF, 1379.97
PART-1-1.1000006, BF, 1092.89
PART-1-1.1000007, BF, 1769.47
PART-1-1.1000008, BF, 1570.68
PART-1-1.1000009, BF, 1310.62
PART-1-1.1000010, BF, 990.492
PART-1-1.1000011, BF, 1905.26
PART-1-1.1000012, BF, 1733.62
PART-1-1.1000013, BF, 1500.4
PART-1-1.1000014, BF, 1207.25
PART-1-1.1000015, BF, 854.56
PART-1-1.1000016, BF, 2013.05
PART-1-1.1000017, BF, 1868.85
PART-1-1.1000018, BF, 1662.17
PART-1-1.1000019, BF, 1396.03
PART-1-1.1000020, BF, 1070.44
** ... 260 like lines cut
** 
** OUTPUT REQUESTS
** 
*Restart, write, frequency=0
** 
** FIELD OUTPUT: F-Output-1
** 
*Output, field
*Node Output
NT, 
*Element Output, directions=YES
HFL, TEMP
*Output, history, frequency=0
*End Step
