**  file created by  A N S A  Wed Apr 15 23:34:39 2015
** 
**  output from :
** 
**  C:/Users/Gaurav/Project_02/Geometry.ansa
** 
*Heading
** Job name: Quadratic_Job Model name: Quadratic
** Generated by: Abaqus/CAE Student Edition 6.14-2
*Preprint, echo=NO, model=NO, history=NO, contact=NO
**
** PARTS
**
*Part, name=PART-1
*Node
2000001, -0.885629654,  0.125715658
2000002, -0.771072209,  0.125859648
2000003, -0.885947943,  0.251333594
2000004, -0.656089067,  0.126048297
2000005, -0.771782875,  0.251637071
2000006, -0.886397421,  0.376746118
2000007, -0.540305674,  0.126194626
2000008, -0.657375991,  0.252113074
2000009, -0.772769809,  0.377162188
2000010, -0.886871934,  0.501877785
2000011,  -0.42293635,   0.12593329
2000012, -0.542580962,  0.252828568
2000013, -0.659106791,  0.377836645
2000014, -0.773784339,  0.502320886
2000015, -0.887291789,  0.626713932
2000016, -0.301588356,  0.123782605
2000017, -0.427263975,  0.253961146
2000018, -0.545455754,  0.378896624
2000019, -0.660798609,  0.503028214
2000020, -0.774659276,  0.627104402
** ... 900 like lines cut
*Element, type=DC2D8
2000001,2000280,2000254,2000076,2000074,2000906,2000912,2000913,2000909
2000002,2000074,2000072,2000281,2000280,2000905,2000904,2000908,2000909
2000003,2000282,2000255,2000254,2000280,2000917,2000916,2000906,2000907
2000004,2000284,2000281,2000072,2000070,2000911,2000904,2000903,2000910
2000005,2000280,2000281,2000283,2000282,2000908,2000915,2000914,2000907
2000006,2000286,2000256,2000255,2000282,2000693,2000694,2000917,2000717
2000007,2000070,2000068,2000289,2000284,2000721,2000696,2000697,2000910
2000008,2000285,2000283,2000281,2000284,2000720,2000915,2000911,2000719
2000009,2000282,2000283,2000287,2000286,2000914,2000718,2000716,2000717
2000010,2000292,2000257,2000256,2000286,2000687,2000692,2000693,2000688
2000011,2000296,2000289,2000068,2000066,2000689,2000696,2000712,2000691
2000012,2000284,2000289,2000290,2000285,2000697,2000695,2000707,2000719
2000013,2000288,2000287,2000283,2000285,2000714,2000718,2000720,2000715
2000014,2000286,2000287,2000293,2000292,2000716,2000711,2000686,2000688
2000015,2000300,2000258,2000257,2000292,2000685,2000713,2000687,2000682
2000016,2000066,2000064,2000305,2000296,2000701,2000672,2000671,2000691
2000017,2000297,2000290,2000289,2000296,2000704,2000695,2000689,2000690
2000018,2000285,2000290,2000291,2000288,2000707,2000667,2000668,2000715
2000019,2000294,2000293,2000287,2000288,2000678,2000711,2000714,2000679
2000020,2000292,2000293,2000301,2000300,2000686,2000708,2000684,2000682
** ... 260 like lines cut
*Elset, elset=PLATE, generate
2000001, 2000280,       1
** Section: Section-1-PLATE
*Solid Section, elset=PLATE, material=MAT_01
1.,
*End Part
**  
**
** ASSEMBLY
**
*Assembly, name=Assembly
**  
*Instance, name=PART-1-1, part=PART-1
*End Instance
**  
*Nset, nset=BOUNDARY_NODES, instance=PART-1-1
2000055,2000056,2000057,2000058,2000059,2000060,2000061,2000076,2000078,2000079,2000081,2000083,2000085,2000087,2000089,2000091
2000092,2000093,2000094,2000095,2000096,2000097,2000098,2000099,2000100,2000101,2000102,2000103,2000104,2000105,2000106,2000107
2000172,2000173,2000174,2000175,2000176,2000177,2000178,2000179,2000180,2000181,2000182,2000183,2000184,2000185,2000186,2000187
2000188,2000254,2000255,2000256,2000257,2000258,2000259,2000260,2000261,2000262,2000263,2000264,2000265,2000266,2000267,2000268
2000269,2000270,2000334,2000335,2000341,2000342,2000375,2000376,2000378,2000379,2000396,2000397,2000398,2000404,2000435,2000436
2000438,2000459,2000460,2000466,2000468,2000476,2000479,2000484,2000490,2000494,2000518,2000519,2000528,2000529,2000548,2000549
2000550,2000554,2000555,2000556,2000562,2000564,2000578,2000580,2000590,2000643,2000644,2000652,2000662,2000663,2000692,2000694
2000699,2000700,2000713,2000738,2000747,2000788,2000789,2000794,2000796,2000798,2000801,2000802,2000814,2000823,2000830,2000831
2000861,2000877,2000878,2000899,2000912,2000916,2000919,2000920
*Elset, elset=_Flux_S1, internal, instance=PART-1-1
2000047,2000257
*Elset, elset=_Flux_S2, internal, instance=PART-1-1
2000092,2000109,2000162,2000179
*Elset, elset=_Flux_S3, internal, instance=PART-1-1
2000022,2000039,2000232,2000249
*Elset, elset=_Flux_S4, internal, instance=PART-1-1
2000117,2000187
*Surface, type=ELEMENT, name=Flux
_Flux_S1, S1
_Flux_S2, S2
_Flux_S4, S4
_Flux_S3, S3
*End Assembly
** 
** MATERIALS
** 
** 
** Mat_01
** 
*Material, name=MAT_01
*Conductivity
54.,
** ----------------------------------------------------------------
** 
** STEP: Quadratic_HT
** 
*Step, name=Quadratic_HT, nlgeom=NO
*Heat Transfer, steady state, deltmx=0.
0.1, 1., 1e-05, 0.2, 
** 
** BOUNDARY CONDITIONS
** 
** Name: Boundary Type: Temperature
*Boundary
BOUNDARY_NODES, 11, 11
** 
** LOADS
** 
** Name: Heat_Flux   Type: Surface heat flux Using Field: Flux_Field
*Dflux
PART-1-1.2000047, S1, 208.691
PART-1-1.2000257, S1, 208.691
PART-1-1.2000092, S2, 202.12
PART-1-1.2000109, S2, 201.872
PART-1-1.2000162, S2, 202.12
PART-1-1.2000179, S2, 201.872
PART-1-1.2000022, S3, 202.12
PART-1-1.2000039, S3, 201.872
PART-1-1.2000232, S3, 202.12
PART-1-1.2000249, S3, 201.872
PART-1-1.2000117, S4, 208.691
PART-1-1.2000187, S4, 208.691
** Name: Heat_Source   Type: Body heat flux Using Field: Source_Field
*Dflux
PART-1-1.2000001, BF, 1195.75
PART-1-1.2000002, BF, 1414.76
PART-1-1.2000003, BF, 1161.41
PART-1-1.2000004, BF, 1605.96
PART-1-1.2000005, BF, 1379.97
PART-1-1.2000006, BF, 1092.89
PART-1-1.2000007, BF, 1769.47
PART-1-1.2000008, BF, 1570.68
PART-1-1.2000009, BF, 1310.62
PART-1-1.2000010, BF, 990.492
PART-1-1.2000011, BF, 1905.26
PART-1-1.2000012, BF, 1733.62
PART-1-1.2000013, BF, 1500.4
PART-1-1.2000014, BF, 1207.25
PART-1-1.2000015, BF, 854.56
PART-1-1.2000016, BF, 2013.05
PART-1-1.2000017, BF, 1868.85
PART-1-1.2000018, BF, 1662.17
PART-1-1.2000019, BF, 1396.03
PART-1-1.2000020, BF, 1070.44
** ... 260 like lines cut
** 
** OUTPUT REQUESTS
** 
*Restart, write, frequency=0
** 
** FIELD OUTPUT: F-Output-1
** 
*Output, field
*Node Output
NT, 
*Element Output, directions=YES
HFL, TEMP
*Output, history, frequency=0
*End Step
